
---------- Begin Simulation Statistics ----------
final_tick                                   38656000                       # Number of ticks from beginning of simulation (restored from checkpoints and never reset)
host_inst_rate                                  91444                       # Simulator instruction rate (inst/s)
host_mem_usage                                 656944                       # Number of bytes of host memory used
host_op_rate                                   104729                       # Simulator op (including micro ops) rate (op/s)
host_seconds                                     0.14                       # Real time elapsed on the host
host_tick_rate                              268989228                       # Simulator tick rate (ticks/s)
sim_freq                                 1000000000000                       # Frequency of simulated ticks
sim_insts                                       13132                       # Number of instructions simulated
sim_ops                                         15049                       # Number of ops (including micro ops) simulated
sim_seconds                                  0.000039                       # Number of seconds simulated
sim_ticks                                    38656000                       # Number of ticks simulated
system.cpu.committedInsts                       13132                       # Number of instructions committed
system.cpu.committedOps                         15049                       # Number of ops (including micro ops) committed
system.cpu.cpi                               5.887298                       # CPI: cycles per instruction
system.cpu.discardedOps                          2025                       # Number of ops (including micro ops) which were discarded before commit
system.cpu.idleCycles                           54111                       # Total number of cycles that the object has spent stopped
system.cpu.ipc                               0.169857                       # IPC: instructions per cycle
system.cpu.numCycles                            77312                       # number of cpu cycles simulated
system.cpu.numFetchSuspends                         0                       # Number of times Execute suspended instruction fetching
system.cpu.numWorkItemsCompleted                    0                       # number of work items this cpu completed
system.cpu.numWorkItemsStarted                      0                       # number of work items this cpu started
system.cpu.op_class_0::No_OpClass                   0      0.00%      0.00% # Class of committed instruction
system.cpu.op_class_0::IntAlu                   10132     67.33%     67.33% # Class of committed instruction
system.cpu.op_class_0::IntMult                     70      0.47%     67.79% # Class of committed instruction
system.cpu.op_class_0::IntDiv                       0      0.00%     67.79% # Class of committed instruction
system.cpu.op_class_0::FloatAdd                     0      0.00%     67.79% # Class of committed instruction
system.cpu.op_class_0::FloatCmp                     0      0.00%     67.79% # Class of committed instruction
system.cpu.op_class_0::FloatCvt                     0      0.00%     67.79% # Class of committed instruction
system.cpu.op_class_0::FloatMult                    0      0.00%     67.79% # Class of committed instruction
system.cpu.op_class_0::FloatMultAcc                 0      0.00%     67.79% # Class of committed instruction
system.cpu.op_class_0::FloatDiv                     0      0.00%     67.79% # Class of committed instruction
system.cpu.op_class_0::FloatMisc                    0      0.00%     67.79% # Class of committed instruction
system.cpu.op_class_0::FloatSqrt                    0      0.00%     67.79% # Class of committed instruction
system.cpu.op_class_0::SimdAdd                      0      0.00%     67.79% # Class of committed instruction
system.cpu.op_class_0::SimdAddAcc                   0      0.00%     67.79% # Class of committed instruction
system.cpu.op_class_0::SimdAlu                      0      0.00%     67.79% # Class of committed instruction
system.cpu.op_class_0::SimdCmp                      0      0.00%     67.79% # Class of committed instruction
system.cpu.op_class_0::SimdCvt                      0      0.00%     67.79% # Class of committed instruction
system.cpu.op_class_0::SimdMisc                     0      0.00%     67.79% # Class of committed instruction
system.cpu.op_class_0::SimdMult                     0      0.00%     67.79% # Class of committed instruction
system.cpu.op_class_0::SimdMultAcc                  0      0.00%     67.79% # Class of committed instruction
system.cpu.op_class_0::SimdShift                    0      0.00%     67.79% # Class of committed instruction
system.cpu.op_class_0::SimdShiftAcc                 0      0.00%     67.79% # Class of committed instruction
system.cpu.op_class_0::SimdDiv                      0      0.00%     67.79% # Class of committed instruction
system.cpu.op_class_0::SimdSqrt                     0      0.00%     67.79% # Class of committed instruction
system.cpu.op_class_0::SimdFloatAdd                 0      0.00%     67.79% # Class of committed instruction
system.cpu.op_class_0::SimdFloatAlu                 0      0.00%     67.79% # Class of committed instruction
system.cpu.op_class_0::SimdFloatCmp                 0      0.00%     67.79% # Class of committed instruction
system.cpu.op_class_0::SimdFloatCvt                 0      0.00%     67.79% # Class of committed instruction
system.cpu.op_class_0::SimdFloatDiv                 0      0.00%     67.79% # Class of committed instruction
system.cpu.op_class_0::SimdFloatMisc               21      0.14%     67.93% # Class of committed instruction
system.cpu.op_class_0::SimdFloatMult                0      0.00%     67.93% # Class of committed instruction
system.cpu.op_class_0::SimdFloatMultAcc             0      0.00%     67.93% # Class of committed instruction
system.cpu.op_class_0::SimdFloatSqrt                0      0.00%     67.93% # Class of committed instruction
system.cpu.op_class_0::SimdReduceAdd                0      0.00%     67.93% # Class of committed instruction
system.cpu.op_class_0::SimdReduceAlu                0      0.00%     67.93% # Class of committed instruction
system.cpu.op_class_0::SimdReduceCmp                0      0.00%     67.93% # Class of committed instruction
system.cpu.op_class_0::SimdFloatReduceAdd            0      0.00%     67.93% # Class of committed instruction
system.cpu.op_class_0::SimdFloatReduceCmp            0      0.00%     67.93% # Class of committed instruction
system.cpu.op_class_0::SimdAes                      0      0.00%     67.93% # Class of committed instruction
system.cpu.op_class_0::SimdAesMix                   0      0.00%     67.93% # Class of committed instruction
system.cpu.op_class_0::SimdSha1Hash                 0      0.00%     67.93% # Class of committed instruction
system.cpu.op_class_0::SimdSha1Hash2                0      0.00%     67.93% # Class of committed instruction
system.cpu.op_class_0::SimdSha256Hash               0      0.00%     67.93% # Class of committed instruction
system.cpu.op_class_0::SimdSha256Hash2              0      0.00%     67.93% # Class of committed instruction
system.cpu.op_class_0::SimdShaSigma2                0      0.00%     67.93% # Class of committed instruction
system.cpu.op_class_0::SimdShaSigma3                0      0.00%     67.93% # Class of committed instruction
system.cpu.op_class_0::SimdPredAlu                  0      0.00%     67.93% # Class of committed instruction
system.cpu.op_class_0::MemRead                   2689     17.87%     85.80% # Class of committed instruction
system.cpu.op_class_0::MemWrite                  2137     14.20%    100.00% # Class of committed instruction
system.cpu.op_class_0::FloatMemRead                 0      0.00%    100.00% # Class of committed instruction
system.cpu.op_class_0::FloatMemWrite                0      0.00%    100.00% # Class of committed instruction
system.cpu.op_class_0::IprAccess                    0      0.00%    100.00% # Class of committed instruction
system.cpu.op_class_0::InstPrefetch                 0      0.00%    100.00% # Class of committed instruction
system.cpu.op_class_0::total                    15049                       # Class of committed instruction
system.cpu.tickCycles                           23201                       # Number of cycles that the object actually ticked
system.cpu.workload.numSyscalls                    11                       # Number of system calls
system.membus.snoop_filter.hit_multi_requests            6                       # Number of requests hitting in the snoop filter with multiple (>1) holders of the requested data.
system.membus.snoop_filter.hit_multi_snoops            0                       # Number of snoops hitting in the snoop filter with multiple (>1) holders of the requested data.
system.membus.snoop_filter.hit_single_requests          133                       # Number of requests hitting in the snoop filter with a single holder of the requested data.
system.membus.snoop_filter.hit_single_snoops            0                       # Number of snoops hitting in the snoop filter with a single holder of the requested data.
system.membus.snoop_filter.tot_requests           731                       # Total number of requests made to the snoop filter.
system.membus.snoop_filter.tot_snoops               0                       # Total number of snoops made to the snoop filter.
system.clk_domain.clock                          1000                       # Clock period in ticks
system.cpu.branchPred.lookups                    4287                       # Number of BP lookups
system.cpu.branchPred.condPredicted              2881                       # Number of conditional branches predicted
system.cpu.branchPred.condIncorrect               624                       # Number of conditional branches incorrect
system.cpu.branchPred.BTBLookups                 1917                       # Number of BTB lookups
system.cpu.branchPred.BTBHits                     943                       # Number of BTB hits
system.cpu.branchPred.BTBHitPct             49.191445                       # BTB Hit Percentage
system.cpu.branchPred.RASUsed                     367                       # Number of times the RAS was used to get a target.
system.cpu.branchPred.RASIncorrect                  2                       # Number of incorrect RAS predictions.
system.cpu.branchPred.indirectLookups             234                       # Number of indirect predictor lookups.
system.cpu.branchPred.indirectHits                 76                       # Number of indirect target hits.
system.cpu.branchPred.indirectMisses              158                       # Number of indirect misses.
system.cpu.branchPred.indirectMispredicted           75                       # Number of mispredicted indirect branches.
system.cpu.dcache.demand_hits::.cpu.data         4719                       # number of demand (read+write) hits
system.cpu.dcache.demand_hits::total             4719                       # number of demand (read+write) hits
system.cpu.dcache.overall_hits::.cpu.data         4742                       # number of overall hits
system.cpu.dcache.overall_hits::total            4742                       # number of overall hits
system.cpu.dcache.demand_misses::.cpu.data          224                       # number of demand (read+write) misses
system.cpu.dcache.demand_misses::total            224                       # number of demand (read+write) misses
system.cpu.dcache.overall_misses::.cpu.data          236                       # number of overall misses
system.cpu.dcache.overall_misses::total           236                       # number of overall misses
system.cpu.dcache.demand_miss_latency::.cpu.data     14163500                       # number of demand (read+write) miss cycles
system.cpu.dcache.demand_miss_latency::total     14163500                       # number of demand (read+write) miss cycles
system.cpu.dcache.overall_miss_latency::.cpu.data     14163500                       # number of overall miss cycles
system.cpu.dcache.overall_miss_latency::total     14163500                       # number of overall miss cycles
system.cpu.dcache.demand_accesses::.cpu.data         4943                       # number of demand (read+write) accesses
system.cpu.dcache.demand_accesses::total         4943                       # number of demand (read+write) accesses
system.cpu.dcache.overall_accesses::.cpu.data         4978                       # number of overall (read+write) accesses
system.cpu.dcache.overall_accesses::total         4978                       # number of overall (read+write) accesses
system.cpu.dcache.demand_miss_rate::.cpu.data     0.045317                       # miss rate for demand accesses
system.cpu.dcache.demand_miss_rate::total     0.045317                       # miss rate for demand accesses
system.cpu.dcache.overall_miss_rate::.cpu.data     0.047409                       # miss rate for overall accesses
system.cpu.dcache.overall_miss_rate::total     0.047409                       # miss rate for overall accesses
system.cpu.dcache.demand_avg_miss_latency::.cpu.data 63229.910714                       # average overall miss latency
system.cpu.dcache.demand_avg_miss_latency::total 63229.910714                       # average overall miss latency
system.cpu.dcache.overall_avg_miss_latency::.cpu.data 60014.830508                       # average overall miss latency
system.cpu.dcache.overall_avg_miss_latency::total 60014.830508                       # average overall miss latency
system.cpu.dcache.blocked_cycles::no_mshrs            0                       # number of cycles access was blocked
system.cpu.dcache.blocked_cycles::no_targets            0                       # number of cycles access was blocked
system.cpu.dcache.blocked::no_mshrs                 0                       # number of cycles access was blocked
system.cpu.dcache.blocked::no_targets               0                       # number of cycles access was blocked
system.cpu.dcache.avg_blocked_cycles::no_mshrs          nan                       # average number of cycles each access was blocked
system.cpu.dcache.avg_blocked_cycles::no_targets          nan                       # average number of cycles each access was blocked
system.cpu.dcache.writebacks::.writebacks            1                       # number of writebacks
system.cpu.dcache.writebacks::total                 1                       # number of writebacks
system.cpu.dcache.demand_mshr_hits::.cpu.data           53                       # number of demand (read+write) MSHR hits
system.cpu.dcache.demand_mshr_hits::total           53                       # number of demand (read+write) MSHR hits
system.cpu.dcache.overall_mshr_hits::.cpu.data           53                       # number of overall MSHR hits
system.cpu.dcache.overall_mshr_hits::total           53                       # number of overall MSHR hits
system.cpu.dcache.demand_mshr_misses::.cpu.data          171                       # number of demand (read+write) MSHR misses
system.cpu.dcache.demand_mshr_misses::total          171                       # number of demand (read+write) MSHR misses
system.cpu.dcache.overall_mshr_misses::.cpu.data          181                       # number of overall MSHR misses
system.cpu.dcache.overall_mshr_misses::total          181                       # number of overall MSHR misses
system.cpu.dcache.demand_mshr_miss_latency::.cpu.data     10665000                       # number of demand (read+write) MSHR miss cycles
system.cpu.dcache.demand_mshr_miss_latency::total     10665000                       # number of demand (read+write) MSHR miss cycles
system.cpu.dcache.overall_mshr_miss_latency::.cpu.data     11282000                       # number of overall MSHR miss cycles
system.cpu.dcache.overall_mshr_miss_latency::total     11282000                       # number of overall MSHR miss cycles
system.cpu.dcache.demand_mshr_miss_rate::.cpu.data     0.034594                       # mshr miss rate for demand accesses
system.cpu.dcache.demand_mshr_miss_rate::total     0.034594                       # mshr miss rate for demand accesses
system.cpu.dcache.overall_mshr_miss_rate::.cpu.data     0.036360                       # mshr miss rate for overall accesses
system.cpu.dcache.overall_mshr_miss_rate::total     0.036360                       # mshr miss rate for overall accesses
system.cpu.dcache.demand_avg_mshr_miss_latency::.cpu.data 62368.421053                       # average overall mshr miss latency
system.cpu.dcache.demand_avg_mshr_miss_latency::total 62368.421053                       # average overall mshr miss latency
system.cpu.dcache.overall_avg_mshr_miss_latency::.cpu.data 62331.491713                       # average overall mshr miss latency
system.cpu.dcache.overall_avg_mshr_miss_latency::total 62331.491713                       # average overall mshr miss latency
system.cpu.dcache.replacements                      3                       # number of replacements
system.cpu.dcache.ReadReq_hits::.cpu.data         2763                       # number of ReadReq hits
system.cpu.dcache.ReadReq_hits::total            2763                       # number of ReadReq hits
system.cpu.dcache.ReadReq_misses::.cpu.data          109                       # number of ReadReq misses
system.cpu.dcache.ReadReq_misses::total           109                       # number of ReadReq misses
system.cpu.dcache.ReadReq_miss_latency::.cpu.data      7005000                       # number of ReadReq miss cycles
system.cpu.dcache.ReadReq_miss_latency::total      7005000                       # number of ReadReq miss cycles
system.cpu.dcache.ReadReq_accesses::.cpu.data         2872                       # number of ReadReq accesses(hits+misses)
system.cpu.dcache.ReadReq_accesses::total         2872                       # number of ReadReq accesses(hits+misses)
system.cpu.dcache.ReadReq_miss_rate::.cpu.data     0.037953                       # miss rate for ReadReq accesses
system.cpu.dcache.ReadReq_miss_rate::total     0.037953                       # miss rate for ReadReq accesses
system.cpu.dcache.ReadReq_avg_miss_latency::.cpu.data 64266.055046                       # average ReadReq miss latency
system.cpu.dcache.ReadReq_avg_miss_latency::total 64266.055046                       # average ReadReq miss latency
system.cpu.dcache.ReadReq_mshr_hits::.cpu.data            5                       # number of ReadReq MSHR hits
system.cpu.dcache.ReadReq_mshr_hits::total            5                       # number of ReadReq MSHR hits
system.cpu.dcache.ReadReq_mshr_misses::.cpu.data          104                       # number of ReadReq MSHR misses
system.cpu.dcache.ReadReq_mshr_misses::total          104                       # number of ReadReq MSHR misses
system.cpu.dcache.ReadReq_mshr_miss_latency::.cpu.data      6578000                       # number of ReadReq MSHR miss cycles
system.cpu.dcache.ReadReq_mshr_miss_latency::total      6578000                       # number of ReadReq MSHR miss cycles
system.cpu.dcache.ReadReq_mshr_miss_rate::.cpu.data     0.036212                       # mshr miss rate for ReadReq accesses
system.cpu.dcache.ReadReq_mshr_miss_rate::total     0.036212                       # mshr miss rate for ReadReq accesses
system.cpu.dcache.ReadReq_avg_mshr_miss_latency::.cpu.data        63250                       # average ReadReq mshr miss latency
system.cpu.dcache.ReadReq_avg_mshr_miss_latency::total        63250                       # average ReadReq mshr miss latency
system.cpu.dcache.WriteReq_hits::.cpu.data         1956                       # number of WriteReq hits
system.cpu.dcache.WriteReq_hits::total           1956                       # number of WriteReq hits
system.cpu.dcache.WriteReq_misses::.cpu.data          115                       # number of WriteReq misses
system.cpu.dcache.WriteReq_misses::total          115                       # number of WriteReq misses
system.cpu.dcache.WriteReq_miss_latency::.cpu.data      7158500                       # number of WriteReq miss cycles
system.cpu.dcache.WriteReq_miss_latency::total      7158500                       # number of WriteReq miss cycles
system.cpu.dcache.WriteReq_accesses::.cpu.data         2071                       # number of WriteReq accesses(hits+misses)
system.cpu.dcache.WriteReq_accesses::total         2071                       # number of WriteReq accesses(hits+misses)
system.cpu.dcache.WriteReq_miss_rate::.cpu.data     0.055529                       # miss rate for WriteReq accesses
system.cpu.dcache.WriteReq_miss_rate::total     0.055529                       # miss rate for WriteReq accesses
system.cpu.dcache.WriteReq_avg_miss_latency::.cpu.data 62247.826087                       # average WriteReq miss latency
system.cpu.dcache.WriteReq_avg_miss_latency::total 62247.826087                       # average WriteReq miss latency
system.cpu.dcache.WriteReq_mshr_hits::.cpu.data           48                       # number of WriteReq MSHR hits
system.cpu.dcache.WriteReq_mshr_hits::total           48                       # number of WriteReq MSHR hits
system.cpu.dcache.WriteReq_mshr_misses::.cpu.data           67                       # number of WriteReq MSHR misses
system.cpu.dcache.WriteReq_mshr_misses::total           67                       # number of WriteReq MSHR misses
system.cpu.dcache.WriteReq_mshr_miss_latency::.cpu.data      4087000                       # number of WriteReq MSHR miss cycles
system.cpu.dcache.WriteReq_mshr_miss_latency::total      4087000                       # number of WriteReq MSHR miss cycles
system.cpu.dcache.WriteReq_mshr_miss_rate::.cpu.data     0.032352                       # mshr miss rate for WriteReq accesses
system.cpu.dcache.WriteReq_mshr_miss_rate::total     0.032352                       # mshr miss rate for WriteReq accesses
system.cpu.dcache.WriteReq_avg_mshr_miss_latency::.cpu.data        61000                       # average WriteReq mshr miss latency
system.cpu.dcache.WriteReq_avg_mshr_miss_latency::total        61000                       # average WriteReq mshr miss latency
system.cpu.dcache.SoftPFReq_hits::.cpu.data           23                       # number of SoftPFReq hits
system.cpu.dcache.SoftPFReq_hits::total            23                       # number of SoftPFReq hits
system.cpu.dcache.SoftPFReq_misses::.cpu.data           12                       # number of SoftPFReq misses
system.cpu.dcache.SoftPFReq_misses::total           12                       # number of SoftPFReq misses
system.cpu.dcache.SoftPFReq_accesses::.cpu.data           35                       # number of SoftPFReq accesses(hits+misses)
system.cpu.dcache.SoftPFReq_accesses::total           35                       # number of SoftPFReq accesses(hits+misses)
system.cpu.dcache.SoftPFReq_miss_rate::.cpu.data     0.342857                       # miss rate for SoftPFReq accesses
system.cpu.dcache.SoftPFReq_miss_rate::total     0.342857                       # miss rate for SoftPFReq accesses
system.cpu.dcache.SoftPFReq_mshr_misses::.cpu.data           10                       # number of SoftPFReq MSHR misses
system.cpu.dcache.SoftPFReq_mshr_misses::total           10                       # number of SoftPFReq MSHR misses
system.cpu.dcache.SoftPFReq_mshr_miss_latency::.cpu.data       617000                       # number of SoftPFReq MSHR miss cycles
system.cpu.dcache.SoftPFReq_mshr_miss_latency::total       617000                       # number of SoftPFReq MSHR miss cycles
system.cpu.dcache.SoftPFReq_mshr_miss_rate::.cpu.data     0.285714                       # mshr miss rate for SoftPFReq accesses
system.cpu.dcache.SoftPFReq_mshr_miss_rate::total     0.285714                       # mshr miss rate for SoftPFReq accesses
system.cpu.dcache.SoftPFReq_avg_mshr_miss_latency::.cpu.data        61700                       # average SoftPFReq mshr miss latency
system.cpu.dcache.SoftPFReq_avg_mshr_miss_latency::total        61700                       # average SoftPFReq mshr miss latency
system.cpu.dcache.LoadLockedReq_hits::.cpu.data           20                       # number of LoadLockedReq hits
system.cpu.dcache.LoadLockedReq_hits::total           20                       # number of LoadLockedReq hits
system.cpu.dcache.LoadLockedReq_accesses::.cpu.data           20                       # number of LoadLockedReq accesses(hits+misses)
system.cpu.dcache.LoadLockedReq_accesses::total           20                       # number of LoadLockedReq accesses(hits+misses)
system.cpu.dcache.StoreCondReq_hits::.cpu.data           20                       # number of StoreCondReq hits
system.cpu.dcache.StoreCondReq_hits::total           20                       # number of StoreCondReq hits
system.cpu.dcache.StoreCondReq_accesses::.cpu.data           20                       # number of StoreCondReq accesses(hits+misses)
system.cpu.dcache.StoreCondReq_accesses::total           20                       # number of StoreCondReq accesses(hits+misses)
system.cpu.dcache.power_state.pwrStateResidencyTicks::UNDEFINED     38656000                       # Cumulative time (in ticks) in various power states
system.cpu.dcache.tags.tagsinuse           105.976720                       # Cycle average of tags in use
system.cpu.dcache.tags.total_refs                4963                       # Total number of references to valid blocks.
system.cpu.dcache.tags.sampled_refs               181                       # Sample count of references to valid blocks.
system.cpu.dcache.tags.avg_refs             27.419890                       # Average number of references to valid blocks.
system.cpu.dcache.tags.warmup_cycle            145000                       # Cycle when the warmup percentage was hit.
system.cpu.dcache.tags.occ_blocks::.cpu.data   105.976720                       # Average occupied blocks per requestor
system.cpu.dcache.tags.occ_percent::.cpu.data     0.103493                       # Average percentage of cache occupancy
system.cpu.dcache.tags.occ_percent::total     0.103493                       # Average percentage of cache occupancy
system.cpu.dcache.tags.occ_task_id_blocks::1024          178                       # Occupied blocks per task id
system.cpu.dcache.tags.age_task_id_blocks_1024::0           30                       # Occupied blocks per task id
system.cpu.dcache.tags.age_task_id_blocks_1024::1          148                       # Occupied blocks per task id
system.cpu.dcache.tags.occ_task_id_percent::1024     0.173828                       # Percentage of cache occupancy per task id
system.cpu.dcache.tags.tag_accesses             10217                       # Number of tag accesses
system.cpu.dcache.tags.data_accesses            10217                       # Number of data accesses
system.cpu.dcache.tags.power_state.pwrStateResidencyTicks::UNDEFINED     38656000                       # Cumulative time (in ticks) in various power states
system.cpu.dtb.instHits                             0                       # ITB inst hits
system.cpu.dtb.instMisses                           0                       # ITB inst misses
system.cpu.dtb.readHits                             0                       # DTB read hits
system.cpu.dtb.readMisses                           0                       # DTB read misses
system.cpu.dtb.writeHits                            0                       # DTB write hits
system.cpu.dtb.writeMisses                          0                       # DTB write misses
system.cpu.dtb.inserts                              0                       # Number of times an entry is inserted into the TLB
system.cpu.dtb.flushTlb                             0                       # Number of times complete TLB was flushed
system.cpu.dtb.flushTlbMva                          0                       # Number of times TLB was flushed by MVA
system.cpu.dtb.flushTlbMvaAsid                      0                       # Number of times TLB was flushed by MVA & ASID
system.cpu.dtb.flushTlbAsid                         0                       # Number of times TLB was flushed by ASID
system.cpu.dtb.flushedEntries                       0                       # Number of entries that have been flushed from TLB
system.cpu.dtb.alignFaults                          0                       # Number of TLB faults due to alignment restrictions
system.cpu.dtb.prefetchFaults                       0                       # Number of TLB faults due to prefetch
system.cpu.dtb.domainFaults                         0                       # Number of TLB faults due to domain restrictions
system.cpu.dtb.permsFaults                          0                       # Number of TLB faults due to permissions restrictions
system.cpu.dtb.readAccesses                         0                       # DTB read accesses
system.cpu.dtb.writeAccesses                        0                       # DTB write accesses
system.cpu.dtb.instAccesses                         0                       # ITB inst accesses
system.cpu.dtb.hits                                 0                       # Total TLB (inst and data) hits
system.cpu.dtb.misses                               0                       # Total TLB (inst and data) misses
system.cpu.dtb.accesses                             0                       # Total TLB (inst and data) accesses
system.cpu.dtb.stage2_mmu.stage2_tlb.instHits            0                       # ITB inst hits
system.cpu.dtb.stage2_mmu.stage2_tlb.instMisses            0                       # ITB inst misses
system.cpu.dtb.stage2_mmu.stage2_tlb.readHits            0                       # DTB read hits
system.cpu.dtb.stage2_mmu.stage2_tlb.readMisses            0                       # DTB read misses
system.cpu.dtb.stage2_mmu.stage2_tlb.writeHits            0                       # DTB write hits
system.cpu.dtb.stage2_mmu.stage2_tlb.writeMisses            0                       # DTB write misses
system.cpu.dtb.stage2_mmu.stage2_tlb.inserts            0                       # Number of times an entry is inserted into the TLB
system.cpu.dtb.stage2_mmu.stage2_tlb.flushTlb            0                       # Number of times complete TLB was flushed
system.cpu.dtb.stage2_mmu.stage2_tlb.flushTlbMva            0                       # Number of times TLB was flushed by MVA
system.cpu.dtb.stage2_mmu.stage2_tlb.flushTlbMvaAsid            0                       # Number of times TLB was flushed by MVA & ASID
system.cpu.dtb.stage2_mmu.stage2_tlb.flushTlbAsid            0                       # Number of times TLB was flushed by ASID
system.cpu.dtb.stage2_mmu.stage2_tlb.flushedEntries            0                       # Number of entries that have been flushed from TLB
system.cpu.dtb.stage2_mmu.stage2_tlb.alignFaults            0                       # Number of TLB faults due to alignment restrictions
system.cpu.dtb.stage2_mmu.stage2_tlb.prefetchFaults            0                       # Number of TLB faults due to prefetch
system.cpu.dtb.stage2_mmu.stage2_tlb.domainFaults            0                       # Number of TLB faults due to domain restrictions
system.cpu.dtb.stage2_mmu.stage2_tlb.permsFaults            0                       # Number of TLB faults due to permissions restrictions
system.cpu.dtb.stage2_mmu.stage2_tlb.readAccesses            0                       # DTB read accesses
system.cpu.dtb.stage2_mmu.stage2_tlb.writeAccesses            0                       # DTB write accesses
system.cpu.dtb.stage2_mmu.stage2_tlb.instAccesses            0                       # ITB inst accesses
system.cpu.dtb.stage2_mmu.stage2_tlb.hits            0                       # Total TLB (inst and data) hits
system.cpu.dtb.stage2_mmu.stage2_tlb.misses            0                       # Total TLB (inst and data) misses
system.cpu.dtb.stage2_mmu.stage2_tlb.accesses            0                       # Total TLB (inst and data) accesses
system.cpu.dtb.stage2_mmu.stage2_tlb.walker.walks            0                       # Table walker walks requested
system.cpu.dtb.stage2_mmu.stage2_tlb.walker.requestOrigin_Requested::Data            0                       # Table walker requests started/completed, data/inst
system.cpu.dtb.stage2_mmu.stage2_tlb.walker.requestOrigin_Requested::Inst            0                       # Table walker requests started/completed, data/inst
system.cpu.dtb.stage2_mmu.stage2_tlb.walker.requestOrigin_Requested::total            0                       # Table walker requests started/completed, data/inst
system.cpu.dtb.stage2_mmu.stage2_tlb.walker.requestOrigin_Completed::Data            0                       # Table walker requests started/completed, data/inst
system.cpu.dtb.stage2_mmu.stage2_tlb.walker.requestOrigin_Completed::Inst            0                       # Table walker requests started/completed, data/inst
system.cpu.dtb.stage2_mmu.stage2_tlb.walker.requestOrigin_Completed::total            0                       # Table walker requests started/completed, data/inst
system.cpu.dtb.stage2_mmu.stage2_tlb.walker.requestOrigin::total            0                       # Table walker requests started/completed, data/inst
system.cpu.dtb.stage2_mmu.stage2_tlb.walker.power_state.pwrStateResidencyTicks::UNDEFINED     38656000                       # Cumulative time (in ticks) in various power states
system.cpu.dtb.walker.walks                         0                       # Table walker walks requested
system.cpu.dtb.walker.requestOrigin_Requested::Data            0                       # Table walker requests started/completed, data/inst
system.cpu.dtb.walker.requestOrigin_Requested::Inst            0                       # Table walker requests started/completed, data/inst
system.cpu.dtb.walker.requestOrigin_Requested::total            0                       # Table walker requests started/completed, data/inst
system.cpu.dtb.walker.requestOrigin_Completed::Data            0                       # Table walker requests started/completed, data/inst
system.cpu.dtb.walker.requestOrigin_Completed::Inst            0                       # Table walker requests started/completed, data/inst
system.cpu.dtb.walker.requestOrigin_Completed::total            0                       # Table walker requests started/completed, data/inst
system.cpu.dtb.walker.requestOrigin::total            0                       # Table walker requests started/completed, data/inst
system.cpu.dtb.walker.power_state.pwrStateResidencyTicks::UNDEFINED     38656000                       # Cumulative time (in ticks) in various power states
system.cpu.fetch2.intInstructions               11806                       # Number of integer instructions successfully decoded
system.cpu.fetch2.fpInstructions                    0                       # Number of floating point instructions successfully decoded
system.cpu.fetch2.vecInstructions                   0                       # Number of SIMD instructions successfully decoded
system.cpu.fetch2.loadInstructions               3273                       # Number of memory load instructions successfully decoded
system.cpu.fetch2.storeInstructions              1599                       # Number of memory store instructions successfully decoded
system.cpu.fetch2.amoInstructions                   0                       # Number of memory atomic instructions successfully decoded
system.cpu.icache.demand_hits::.cpu.inst         4657                       # number of demand (read+write) hits
system.cpu.icache.demand_hits::total             4657                       # number of demand (read+write) hits
system.cpu.icache.overall_hits::.cpu.inst         4657                       # number of overall hits
system.cpu.icache.overall_hits::total            4657                       # number of overall hits
system.cpu.icache.demand_misses::.cpu.inst          437                       # number of demand (read+write) misses
system.cpu.icache.demand_misses::total            437                       # number of demand (read+write) misses
system.cpu.icache.overall_misses::.cpu.inst          437                       # number of overall misses
system.cpu.icache.overall_misses::total           437                       # number of overall misses
system.cpu.icache.demand_miss_latency::.cpu.inst     24008000                       # number of demand (read+write) miss cycles
system.cpu.icache.demand_miss_latency::total     24008000                       # number of demand (read+write) miss cycles
system.cpu.icache.overall_miss_latency::.cpu.inst     24008000                       # number of overall miss cycles
system.cpu.icache.overall_miss_latency::total     24008000                       # number of overall miss cycles
system.cpu.icache.demand_accesses::.cpu.inst         5094                       # number of demand (read+write) accesses
system.cpu.icache.demand_accesses::total         5094                       # number of demand (read+write) accesses
system.cpu.icache.overall_accesses::.cpu.inst         5094                       # number of overall (read+write) accesses
system.cpu.icache.overall_accesses::total         5094                       # number of overall (read+write) accesses
system.cpu.icache.demand_miss_rate::.cpu.inst     0.085787                       # miss rate for demand accesses
system.cpu.icache.demand_miss_rate::total     0.085787                       # miss rate for demand accesses
system.cpu.icache.overall_miss_rate::.cpu.inst     0.085787                       # miss rate for overall accesses
system.cpu.icache.overall_miss_rate::total     0.085787                       # miss rate for overall accesses
system.cpu.icache.demand_avg_miss_latency::.cpu.inst 54938.215103                       # average overall miss latency
system.cpu.icache.demand_avg_miss_latency::total 54938.215103                       # average overall miss latency
system.cpu.icache.overall_avg_miss_latency::.cpu.inst 54938.215103                       # average overall miss latency
system.cpu.icache.overall_avg_miss_latency::total 54938.215103                       # average overall miss latency
system.cpu.icache.blocked_cycles::no_mshrs            0                       # number of cycles access was blocked
system.cpu.icache.blocked_cycles::no_targets            0                       # number of cycles access was blocked
system.cpu.icache.blocked::no_mshrs                 0                       # number of cycles access was blocked
system.cpu.icache.blocked::no_targets               0                       # number of cycles access was blocked
system.cpu.icache.avg_blocked_cycles::no_mshrs          nan                       # average number of cycles each access was blocked
system.cpu.icache.avg_blocked_cycles::no_targets          nan                       # average number of cycles each access was blocked
system.cpu.icache.writebacks::.writebacks          110                       # number of writebacks
system.cpu.icache.writebacks::total               110                       # number of writebacks
system.cpu.icache.demand_mshr_misses::.cpu.inst          437                       # number of demand (read+write) MSHR misses
system.cpu.icache.demand_mshr_misses::total          437                       # number of demand (read+write) MSHR misses
system.cpu.icache.overall_mshr_misses::.cpu.inst          437                       # number of overall MSHR misses
system.cpu.icache.overall_mshr_misses::total          437                       # number of overall MSHR misses
system.cpu.icache.demand_mshr_miss_latency::.cpu.inst     23571000                       # number of demand (read+write) MSHR miss cycles
system.cpu.icache.demand_mshr_miss_latency::total     23571000                       # number of demand (read+write) MSHR miss cycles
system.cpu.icache.overall_mshr_miss_latency::.cpu.inst     23571000                       # number of overall MSHR miss cycles
system.cpu.icache.overall_mshr_miss_latency::total     23571000                       # number of overall MSHR miss cycles
system.cpu.icache.demand_mshr_miss_rate::.cpu.inst     0.085787                       # mshr miss rate for demand accesses
system.cpu.icache.demand_mshr_miss_rate::total     0.085787                       # mshr miss rate for demand accesses
system.cpu.icache.overall_mshr_miss_rate::.cpu.inst     0.085787                       # mshr miss rate for overall accesses
system.cpu.icache.overall_mshr_miss_rate::total     0.085787                       # mshr miss rate for overall accesses
system.cpu.icache.demand_avg_mshr_miss_latency::.cpu.inst 53938.215103                       # average overall mshr miss latency
system.cpu.icache.demand_avg_mshr_miss_latency::total 53938.215103                       # average overall mshr miss latency
system.cpu.icache.overall_avg_mshr_miss_latency::.cpu.inst 53938.215103                       # average overall mshr miss latency
system.cpu.icache.overall_avg_mshr_miss_latency::total 53938.215103                       # average overall mshr miss latency
system.cpu.icache.replacements                    110                       # number of replacements
system.cpu.icache.ReadReq_hits::.cpu.inst         4657                       # number of ReadReq hits
system.cpu.icache.ReadReq_hits::total            4657                       # number of ReadReq hits
system.cpu.icache.ReadReq_misses::.cpu.inst          437                       # number of ReadReq misses
system.cpu.icache.ReadReq_misses::total           437                       # number of ReadReq misses
system.cpu.icache.ReadReq_miss_latency::.cpu.inst     24008000                       # number of ReadReq miss cycles
system.cpu.icache.ReadReq_miss_latency::total     24008000                       # number of ReadReq miss cycles
system.cpu.icache.ReadReq_accesses::.cpu.inst         5094                       # number of ReadReq accesses(hits+misses)
system.cpu.icache.ReadReq_accesses::total         5094                       # number of ReadReq accesses(hits+misses)
system.cpu.icache.ReadReq_miss_rate::.cpu.inst     0.085787                       # miss rate for ReadReq accesses
system.cpu.icache.ReadReq_miss_rate::total     0.085787                       # miss rate for ReadReq accesses
system.cpu.icache.ReadReq_avg_miss_latency::.cpu.inst 54938.215103                       # average ReadReq miss latency
system.cpu.icache.ReadReq_avg_miss_latency::total 54938.215103                       # average ReadReq miss latency
system.cpu.icache.ReadReq_mshr_misses::.cpu.inst          437                       # number of ReadReq MSHR misses
system.cpu.icache.ReadReq_mshr_misses::total          437                       # number of ReadReq MSHR misses
system.cpu.icache.ReadReq_mshr_miss_latency::.cpu.inst     23571000                       # number of ReadReq MSHR miss cycles
system.cpu.icache.ReadReq_mshr_miss_latency::total     23571000                       # number of ReadReq MSHR miss cycles
system.cpu.icache.ReadReq_mshr_miss_rate::.cpu.inst     0.085787                       # mshr miss rate for ReadReq accesses
system.cpu.icache.ReadReq_mshr_miss_rate::total     0.085787                       # mshr miss rate for ReadReq accesses
system.cpu.icache.ReadReq_avg_mshr_miss_latency::.cpu.inst 53938.215103                       # average ReadReq mshr miss latency
system.cpu.icache.ReadReq_avg_mshr_miss_latency::total 53938.215103                       # average ReadReq mshr miss latency
system.cpu.icache.power_state.pwrStateResidencyTicks::UNDEFINED     38656000                       # Cumulative time (in ticks) in various power states
system.cpu.icache.tags.tagsinuse           189.103894                       # Cycle average of tags in use
system.cpu.icache.tags.total_refs                5094                       # Total number of references to valid blocks.
system.cpu.icache.tags.sampled_refs               437                       # Sample count of references to valid blocks.
system.cpu.icache.tags.avg_refs             11.656751                       # Average number of references to valid blocks.
system.cpu.icache.tags.warmup_cycle             77000                       # Cycle when the warmup percentage was hit.
system.cpu.icache.tags.occ_blocks::.cpu.inst   189.103894                       # Average occupied blocks per requestor
system.cpu.icache.tags.occ_percent::.cpu.inst     0.369344                       # Average percentage of cache occupancy
system.cpu.icache.tags.occ_percent::total     0.369344                       # Average percentage of cache occupancy
system.cpu.icache.tags.occ_task_id_blocks::1024          327                       # Occupied blocks per task id
system.cpu.icache.tags.age_task_id_blocks_1024::0          112                       # Occupied blocks per task id
system.cpu.icache.tags.age_task_id_blocks_1024::1          215                       # Occupied blocks per task id
system.cpu.icache.tags.occ_task_id_percent::1024     0.638672                       # Percentage of cache occupancy per task id
system.cpu.icache.tags.tag_accesses             10625                       # Number of tag accesses
system.cpu.icache.tags.data_accesses            10625                       # Number of data accesses
system.cpu.icache.tags.power_state.pwrStateResidencyTicks::UNDEFINED     38656000                       # Cumulative time (in ticks) in various power states
system.cpu.itb.instHits                             0                       # ITB inst hits
system.cpu.itb.instMisses                           0                       # ITB inst misses
system.cpu.itb.readHits                             0                       # DTB read hits
system.cpu.itb.readMisses                           0                       # DTB read misses
system.cpu.itb.writeHits                            0                       # DTB write hits
system.cpu.itb.writeMisses                          0                       # DTB write misses
system.cpu.itb.inserts                              0                       # Number of times an entry is inserted into the TLB
system.cpu.itb.flushTlb                             0                       # Number of times complete TLB was flushed
system.cpu.itb.flushTlbMva                          0                       # Number of times TLB was flushed by MVA
system.cpu.itb.flushTlbMvaAsid                      0                       # Number of times TLB was flushed by MVA & ASID
system.cpu.itb.flushTlbAsid                         0                       # Number of times TLB was flushed by ASID
system.cpu.itb.flushedEntries                       0                       # Number of entries that have been flushed from TLB
system.cpu.itb.alignFaults                          0                       # Number of TLB faults due to alignment restrictions
system.cpu.itb.prefetchFaults                       0                       # Number of TLB faults due to prefetch
system.cpu.itb.domainFaults                         0                       # Number of TLB faults due to domain restrictions
system.cpu.itb.permsFaults                          0                       # Number of TLB faults due to permissions restrictions
system.cpu.itb.readAccesses                         0                       # DTB read accesses
system.cpu.itb.writeAccesses                        0                       # DTB write accesses
system.cpu.itb.instAccesses                         0                       # ITB inst accesses
system.cpu.itb.hits                                 0                       # Total TLB (inst and data) hits
system.cpu.itb.misses                               0                       # Total TLB (inst and data) misses
system.cpu.itb.accesses                             0                       # Total TLB (inst and data) accesses
system.cpu.itb.stage2_mmu.stage2_tlb.instHits            0                       # ITB inst hits
system.cpu.itb.stage2_mmu.stage2_tlb.instMisses            0                       # ITB inst misses
system.cpu.itb.stage2_mmu.stage2_tlb.readHits            0                       # DTB read hits
system.cpu.itb.stage2_mmu.stage2_tlb.readMisses            0                       # DTB read misses
system.cpu.itb.stage2_mmu.stage2_tlb.writeHits            0                       # DTB write hits
system.cpu.itb.stage2_mmu.stage2_tlb.writeMisses            0                       # DTB write misses
system.cpu.itb.stage2_mmu.stage2_tlb.inserts            0                       # Number of times an entry is inserted into the TLB
system.cpu.itb.stage2_mmu.stage2_tlb.flushTlb            0                       # Number of times complete TLB was flushed
system.cpu.itb.stage2_mmu.stage2_tlb.flushTlbMva            0                       # Number of times TLB was flushed by MVA
system.cpu.itb.stage2_mmu.stage2_tlb.flushTlbMvaAsid            0                       # Number of times TLB was flushed by MVA & ASID
system.cpu.itb.stage2_mmu.stage2_tlb.flushTlbAsid            0                       # Number of times TLB was flushed by ASID
system.cpu.itb.stage2_mmu.stage2_tlb.flushedEntries            0                       # Number of entries that have been flushed from TLB
system.cpu.itb.stage2_mmu.stage2_tlb.alignFaults            0                       # Number of TLB faults due to alignment restrictions
system.cpu.itb.stage2_mmu.stage2_tlb.prefetchFaults            0                       # Number of TLB faults due to prefetch
system.cpu.itb.stage2_mmu.stage2_tlb.domainFaults            0                       # Number of TLB faults due to domain restrictions
system.cpu.itb.stage2_mmu.stage2_tlb.permsFaults            0                       # Number of TLB faults due to permissions restrictions
system.cpu.itb.stage2_mmu.stage2_tlb.readAccesses            0                       # DTB read accesses
system.cpu.itb.stage2_mmu.stage2_tlb.writeAccesses            0                       # DTB write accesses
system.cpu.itb.stage2_mmu.stage2_tlb.instAccesses            0                       # ITB inst accesses
system.cpu.itb.stage2_mmu.stage2_tlb.hits            0                       # Total TLB (inst and data) hits
system.cpu.itb.stage2_mmu.stage2_tlb.misses            0                       # Total TLB (inst and data) misses
system.cpu.itb.stage2_mmu.stage2_tlb.accesses            0                       # Total TLB (inst and data) accesses
system.cpu.itb.stage2_mmu.stage2_tlb.walker.walks            0                       # Table walker walks requested
system.cpu.itb.stage2_mmu.stage2_tlb.walker.requestOrigin_Requested::Data            0                       # Table walker requests started/completed, data/inst
system.cpu.itb.stage2_mmu.stage2_tlb.walker.requestOrigin_Requested::Inst            0                       # Table walker requests started/completed, data/inst
system.cpu.itb.stage2_mmu.stage2_tlb.walker.requestOrigin_Requested::total            0                       # Table walker requests started/completed, data/inst
system.cpu.itb.stage2_mmu.stage2_tlb.walker.requestOrigin_Completed::Data            0                       # Table walker requests started/completed, data/inst
system.cpu.itb.stage2_mmu.stage2_tlb.walker.requestOrigin_Completed::Inst            0                       # Table walker requests started/completed, data/inst
system.cpu.itb.stage2_mmu.stage2_tlb.walker.requestOrigin_Completed::total            0                       # Table walker requests started/completed, data/inst
system.cpu.itb.stage2_mmu.stage2_tlb.walker.requestOrigin::total            0                       # Table walker requests started/completed, data/inst
system.cpu.itb.stage2_mmu.stage2_tlb.walker.power_state.pwrStateResidencyTicks::UNDEFINED     38656000                       # Cumulative time (in ticks) in various power states
system.cpu.itb.walker.walks                         0                       # Table walker walks requested
system.cpu.itb.walker.requestOrigin_Requested::Data            0                       # Table walker requests started/completed, data/inst
system.cpu.itb.walker.requestOrigin_Requested::Inst            0                       # Table walker requests started/completed, data/inst
system.cpu.itb.walker.requestOrigin_Requested::total            0                       # Table walker requests started/completed, data/inst
system.cpu.itb.walker.requestOrigin_Completed::Data            0                       # Table walker requests started/completed, data/inst
system.cpu.itb.walker.requestOrigin_Completed::Inst            0                       # Table walker requests started/completed, data/inst
system.cpu.itb.walker.requestOrigin_Completed::total            0                       # Table walker requests started/completed, data/inst
system.cpu.itb.walker.requestOrigin::total            0                       # Table walker requests started/completed, data/inst
system.cpu.itb.walker.power_state.pwrStateResidencyTicks::UNDEFINED     38656000                       # Cumulative time (in ticks) in various power states
system.cpu.power_state.pwrStateResidencyTicks::ON     38656000                       # Cumulative time (in ticks) in various power states
system.cpu.thread_0.numInsts                    13132                       # Number of Instructions committed
system.cpu.thread_0.numOps                      15049                       # Number of Ops committed
system.cpu.thread_0.numMemRefs                      0                       # Number of Memory References
system.cpu_clk_domain.clock                       500                       # Clock period in ticks
system.cpu_voltage_domain.voltage                   1                       # Voltage in Volts
system.mem_ctrls.avgPriority_.writebacks::samples       105.00                       # Average QoS priority value for accepted requests
system.mem_ctrls.avgPriority_.cpu.inst::samples       412.00                       # Average QoS priority value for accepted requests
system.mem_ctrls.avgPriority_.cpu.data::samples       180.00                       # Average QoS priority value for accepted requests
system.mem_ctrls.priorityMinLatency      0.000000018750                       # per QoS priority minimum request to response latency (s)
system.mem_ctrls.priorityMaxLatency      0.000033330500                       # per QoS priority maximum request to response latency (s)
system.mem_ctrls.numReadWriteTurnArounds            5                       # Number of turnarounds from READ to WRITE
system.mem_ctrls.numWriteReadTurnArounds            5                       # Number of turnarounds from WRITE to READ
system.mem_ctrls.numStayReadState                1285                       # Number of times bus staying in READ state
system.mem_ctrls.numStayWriteState                 75                       # Number of times bus staying in WRITE state
system.mem_ctrls.readReqs                         618                       # Number of read requests accepted
system.mem_ctrls.writeReqs                        106                       # Number of write requests accepted
system.mem_ctrls.readBursts                       618                       # Number of controller read bursts, including those serviced by the write queue
system.mem_ctrls.writeBursts                      106                       # Number of controller write bursts, including those merged in the write queue
system.mem_ctrls.servicedByWrQ                     26                       # Number of controller read bursts serviced by the write queue
system.mem_ctrls.mergedWrBursts                     1                       # Number of controller write bursts merged with an existing one
system.mem_ctrls.neitherReadNorWriteReqs            0                       # Number of requests that are neither read nor write
system.mem_ctrls.avgRdQLen                       1.16                       # Average read queue length when enqueuing
system.mem_ctrls.avgWrQLen                      14.66                       # Average write queue length when enqueuing
system.mem_ctrls.numRdRetry                         0                       # Number of times read queue was full causing retry
system.mem_ctrls.numWrRetry                         0                       # Number of times write queue was full causing retry
system.mem_ctrls.readPktSize::0                     0                       # Read request sizes (log2)
system.mem_ctrls.readPktSize::1                     0                       # Read request sizes (log2)
system.mem_ctrls.readPktSize::2                     0                       # Read request sizes (log2)
system.mem_ctrls.readPktSize::3                     0                       # Read request sizes (log2)
system.mem_ctrls.readPktSize::4                     0                       # Read request sizes (log2)
system.mem_ctrls.readPktSize::5                     0                       # Read request sizes (log2)
system.mem_ctrls.readPktSize::6                   618                       # Read request sizes (log2)
system.mem_ctrls.writePktSize::0                    0                       # Write request sizes (log2)
system.mem_ctrls.writePktSize::1                    0                       # Write request sizes (log2)
system.mem_ctrls.writePktSize::2                    0                       # Write request sizes (log2)
system.mem_ctrls.writePktSize::3                    0                       # Write request sizes (log2)
system.mem_ctrls.writePktSize::4                    0                       # Write request sizes (log2)
system.mem_ctrls.writePktSize::5                    0                       # Write request sizes (log2)
system.mem_ctrls.writePktSize::6                  106                       # Write request sizes (log2)
system.mem_ctrls.rdQLenPdf::0                     499                       # What read queue length does an incoming req see
system.mem_ctrls.rdQLenPdf::1                      88                       # What read queue length does an incoming req see
system.mem_ctrls.rdQLenPdf::2                       5                       # What read queue length does an incoming req see
system.mem_ctrls.rdQLenPdf::3                       0                       # What read queue length does an incoming req see
system.mem_ctrls.rdQLenPdf::4                       0                       # What read queue length does an incoming req see
system.mem_ctrls.rdQLenPdf::5                       0                       # What read queue length does an incoming req see
system.mem_ctrls.rdQLenPdf::6                       0                       # What read queue length does an incoming req see
system.mem_ctrls.rdQLenPdf::7                       0                       # What read queue length does an incoming req see
system.mem_ctrls.rdQLenPdf::8                       0                       # What read queue length does an incoming req see
system.mem_ctrls.rdQLenPdf::9                       0                       # What read queue length does an incoming req see
system.mem_ctrls.rdQLenPdf::10                      0                       # What read queue length does an incoming req see
system.mem_ctrls.rdQLenPdf::11                      0                       # What read queue length does an incoming req see
system.mem_ctrls.rdQLenPdf::12                      0                       # What read queue length does an incoming req see
system.mem_ctrls.rdQLenPdf::13                      0                       # What read queue length does an incoming req see
system.mem_ctrls.rdQLenPdf::14                      0                       # What read queue length does an incoming req see
system.mem_ctrls.rdQLenPdf::15                      0                       # What read queue length does an incoming req see
system.mem_ctrls.rdQLenPdf::16                      0                       # What read queue length does an incoming req see
system.mem_ctrls.rdQLenPdf::17                      0                       # What read queue length does an incoming req see
system.mem_ctrls.rdQLenPdf::18                      0                       # What read queue length does an incoming req see
system.mem_ctrls.rdQLenPdf::19                      0                       # What read queue length does an incoming req see
system.mem_ctrls.rdQLenPdf::20                      0                       # What read queue length does an incoming req see
system.mem_ctrls.rdQLenPdf::21                      0                       # What read queue length does an incoming req see
system.mem_ctrls.rdQLenPdf::22                      0                       # What read queue length does an incoming req see
system.mem_ctrls.rdQLenPdf::23                      0                       # What read queue length does an incoming req see
system.mem_ctrls.rdQLenPdf::24                      0                       # What read queue length does an incoming req see
system.mem_ctrls.rdQLenPdf::25                      0                       # What read queue length does an incoming req see
system.mem_ctrls.rdQLenPdf::26                      0                       # What read queue length does an incoming req see
system.mem_ctrls.rdQLenPdf::27                      0                       # What read queue length does an incoming req see
system.mem_ctrls.rdQLenPdf::28                      0                       # What read queue length does an incoming req see
system.mem_ctrls.rdQLenPdf::29                      0                       # What read queue length does an incoming req see
system.mem_ctrls.rdQLenPdf::30                      0                       # What read queue length does an incoming req see
system.mem_ctrls.rdQLenPdf::31                      0                       # What read queue length does an incoming req see
system.mem_ctrls.wrQLenPdf::0                       1                       # What write queue length does an incoming req see
system.mem_ctrls.wrQLenPdf::1                       1                       # What write queue length does an incoming req see
system.mem_ctrls.wrQLenPdf::2                       1                       # What write queue length does an incoming req see
system.mem_ctrls.wrQLenPdf::3                       1                       # What write queue length does an incoming req see
system.mem_ctrls.wrQLenPdf::4                       1                       # What write queue length does an incoming req see
system.mem_ctrls.wrQLenPdf::5                       1                       # What write queue length does an incoming req see
system.mem_ctrls.wrQLenPdf::6                       1                       # What write queue length does an incoming req see
system.mem_ctrls.wrQLenPdf::7                       1                       # What write queue length does an incoming req see
system.mem_ctrls.wrQLenPdf::8                       1                       # What write queue length does an incoming req see
system.mem_ctrls.wrQLenPdf::9                       1                       # What write queue length does an incoming req see
system.mem_ctrls.wrQLenPdf::10                      1                       # What write queue length does an incoming req see
system.mem_ctrls.wrQLenPdf::11                      1                       # What write queue length does an incoming req see
system.mem_ctrls.wrQLenPdf::12                      1                       # What write queue length does an incoming req see
system.mem_ctrls.wrQLenPdf::13                      1                       # What write queue length does an incoming req see
system.mem_ctrls.wrQLenPdf::14                      1                       # What write queue length does an incoming req see
system.mem_ctrls.wrQLenPdf::15                      1                       # What write queue length does an incoming req see
system.mem_ctrls.wrQLenPdf::16                      1                       # What write queue length does an incoming req see
system.mem_ctrls.wrQLenPdf::17                      6                       # What write queue length does an incoming req see
system.mem_ctrls.wrQLenPdf::18                      6                       # What write queue length does an incoming req see
system.mem_ctrls.wrQLenPdf::19                      6                       # What write queue length does an incoming req see
system.mem_ctrls.wrQLenPdf::20                      6                       # What write queue length does an incoming req see
system.mem_ctrls.wrQLenPdf::21                      6                       # What write queue length does an incoming req see
system.mem_ctrls.wrQLenPdf::22                      6                       # What write queue length does an incoming req see
system.mem_ctrls.wrQLenPdf::23                      6                       # What write queue length does an incoming req see
system.mem_ctrls.wrQLenPdf::24                      6                       # What write queue length does an incoming req see
system.mem_ctrls.wrQLenPdf::25                      5                       # What write queue length does an incoming req see
system.mem_ctrls.wrQLenPdf::26                      5                       # What write queue length does an incoming req see
system.mem_ctrls.wrQLenPdf::27                      5                       # What write queue length does an incoming req see
system.mem_ctrls.wrQLenPdf::28                      5                       # What write queue length does an incoming req see
system.mem_ctrls.wrQLenPdf::29                      5                       # What write queue length does an incoming req see
system.mem_ctrls.wrQLenPdf::30                      5                       # What write queue length does an incoming req see
system.mem_ctrls.wrQLenPdf::31                      5                       # What write queue length does an incoming req see
system.mem_ctrls.wrQLenPdf::32                      5                       # What write queue length does an incoming req see
system.mem_ctrls.wrQLenPdf::33                      0                       # What write queue length does an incoming req see
system.mem_ctrls.wrQLenPdf::34                      0                       # What write queue length does an incoming req see
system.mem_ctrls.wrQLenPdf::35                      0                       # What write queue length does an incoming req see
system.mem_ctrls.wrQLenPdf::36                      0                       # What write queue length does an incoming req see
system.mem_ctrls.wrQLenPdf::37                      0                       # What write queue length does an incoming req see
system.mem_ctrls.wrQLenPdf::38                      0                       # What write queue length does an incoming req see
system.mem_ctrls.wrQLenPdf::39                      0                       # What write queue length does an incoming req see
system.mem_ctrls.wrQLenPdf::40                      0                       # What write queue length does an incoming req see
system.mem_ctrls.wrQLenPdf::41                      0                       # What write queue length does an incoming req see
system.mem_ctrls.wrQLenPdf::42                      0                       # What write queue length does an incoming req see
system.mem_ctrls.wrQLenPdf::43                      0                       # What write queue length does an incoming req see
system.mem_ctrls.wrQLenPdf::44                      0                       # What write queue length does an incoming req see
system.mem_ctrls.wrQLenPdf::45                      0                       # What write queue length does an incoming req see
system.mem_ctrls.wrQLenPdf::46                      0                       # What write queue length does an incoming req see
system.mem_ctrls.wrQLenPdf::47                      0                       # What write queue length does an incoming req see
system.mem_ctrls.wrQLenPdf::48                      0                       # What write queue length does an incoming req see
system.mem_ctrls.wrQLenPdf::49                      0                       # What write queue length does an incoming req see
system.mem_ctrls.wrQLenPdf::50                      0                       # What write queue length does an incoming req see
system.mem_ctrls.wrQLenPdf::51                      0                       # What write queue length does an incoming req see
system.mem_ctrls.wrQLenPdf::52                      0                       # What write queue length does an incoming req see
system.mem_ctrls.wrQLenPdf::53                      0                       # What write queue length does an incoming req see
system.mem_ctrls.wrQLenPdf::54                      0                       # What write queue length does an incoming req see
system.mem_ctrls.wrQLenPdf::55                      0                       # What write queue length does an incoming req see
system.mem_ctrls.wrQLenPdf::56                      0                       # What write queue length does an incoming req see
system.mem_ctrls.wrQLenPdf::57                      0                       # What write queue length does an incoming req see
system.mem_ctrls.wrQLenPdf::58                      0                       # What write queue length does an incoming req see
system.mem_ctrls.wrQLenPdf::59                      0                       # What write queue length does an incoming req see
system.mem_ctrls.wrQLenPdf::60                      0                       # What write queue length does an incoming req see
system.mem_ctrls.wrQLenPdf::61                      0                       # What write queue length does an incoming req see
system.mem_ctrls.wrQLenPdf::62                      0                       # What write queue length does an incoming req see
system.mem_ctrls.wrQLenPdf::63                      0                       # What write queue length does an incoming req see
system.mem_ctrls.rdPerTurnAround::samples            5                       # Reads before turning the bus around for writes
system.mem_ctrls.rdPerTurnAround::mean            110                       # Reads before turning the bus around for writes
system.mem_ctrls.rdPerTurnAround::gmean     60.228315                       # Reads before turning the bus around for writes
system.mem_ctrls.rdPerTurnAround::stdev    154.573607                       # Reads before turning the bus around for writes
system.mem_ctrls.rdPerTurnAround::16-31             2     40.00%     40.00% # Reads before turning the bus around for writes
system.mem_ctrls.rdPerTurnAround::48-63             2     40.00%     80.00% # Reads before turning the bus around for writes
system.mem_ctrls.rdPerTurnAround::384-399            1     20.00%    100.00% # Reads before turning the bus around for writes
system.mem_ctrls.rdPerTurnAround::total             5                       # Reads before turning the bus around for writes
system.mem_ctrls.wrPerTurnAround::samples            5                       # Writes before turning the bus around for reads
system.mem_ctrls.wrPerTurnAround::mean             16                       # Writes before turning the bus around for reads
system.mem_ctrls.wrPerTurnAround::gmean     16.000000                       # Writes before turning the bus around for reads
system.mem_ctrls.wrPerTurnAround::16                5    100.00%    100.00% # Writes before turning the bus around for reads
system.mem_ctrls.wrPerTurnAround::total             5                       # Writes before turning the bus around for reads
system.mem_ctrls.bytesReadWrQ                    1664                       # Total number of bytes read from write queue
system.mem_ctrls.bytesReadSys                   39552                       # Total read bytes from the system interface side
system.mem_ctrls.bytesWrittenSys                 6784                       # Total written bytes from the system interface side
system.mem_ctrls.avgRdBWSys                   1023.18                       # Average system read bandwidth in MiByte/s
system.mem_ctrls.avgWrBWSys                    175.50                       # Average system write bandwidth in MiByte/s
system.mem_ctrls.totGap                      38597500                       # Total gap between requests
system.mem_ctrls.avgGap                      53311.46                       # Average gap between requests
system.mem_ctrls.requestorReadBytes::.cpu.inst        26368                       # Per-requestor bytes read from memory
system.mem_ctrls.requestorReadBytes::.cpu.data        11520                       # Per-requestor bytes read from memory
system.mem_ctrls.requestorWriteBytes::.writebacks         5120                       # Per-requestor bytes write to memory
system.mem_ctrls.requestorReadRate::.cpu.inst 682119205.298013329506                       # Per-requestor bytes read from memory rate (Bytes/sec)
system.mem_ctrls.requestorReadRate::.cpu.data 298013245.033112585545                       # Per-requestor bytes read from memory rate (Bytes/sec)
system.mem_ctrls.requestorWriteRate::.writebacks 132450331.125827819109                       # Per-requestor bytes write to memory rate (Bytes/sec)
system.mem_ctrls.requestorReadAccesses::.cpu.inst          437                       # Per-requestor read serviced memory accesses
system.mem_ctrls.requestorReadAccesses::.cpu.data          181                       # Per-requestor read serviced memory accesses
system.mem_ctrls.requestorWriteAccesses::.writebacks          106                       # Per-requestor write serviced memory accesses
system.mem_ctrls.requestorReadTotalLat::.cpu.inst      9931250                       # Per-requestor read total memory access latency
system.mem_ctrls.requestorReadTotalLat::.cpu.data      5527000                       # Per-requestor read total memory access latency
system.mem_ctrls.requestorWriteTotalLat::.writebacks    427773750                       # Per-requestor write total memory access latency
system.mem_ctrls.requestorReadAvgLat::.cpu.inst     22725.97                       # Per-requestor read average memory access latency
system.mem_ctrls.requestorReadAvgLat::.cpu.data     30535.91                       # Per-requestor read average memory access latency
system.mem_ctrls.requestorWriteAvgLat::.writebacks   4035601.42                       # Per-requestor write average memory access latency
system.mem_ctrls.dram.bytes_read::.cpu.inst        27968                       # Number of bytes read from this memory
system.mem_ctrls.dram.bytes_read::.cpu.data        11584                       # Number of bytes read from this memory
system.mem_ctrls.dram.bytes_read::total         39552                       # Number of bytes read from this memory
system.mem_ctrls.dram.bytes_inst_read::.cpu.inst        27968                       # Number of instructions bytes read from this memory
system.mem_ctrls.dram.bytes_inst_read::total        27968                       # Number of instructions bytes read from this memory
system.mem_ctrls.dram.bytes_written::.writebacks           64                       # Number of bytes written to this memory
system.mem_ctrls.dram.bytes_written::total           64                       # Number of bytes written to this memory
system.mem_ctrls.dram.num_reads::.cpu.inst          437                       # Number of read requests responded to by this memory
system.mem_ctrls.dram.num_reads::.cpu.data          181                       # Number of read requests responded to by this memory
system.mem_ctrls.dram.num_reads::total            618                       # Number of read requests responded to by this memory
system.mem_ctrls.dram.num_writes::.writebacks            1                       # Number of write requests responded to by this memory
system.mem_ctrls.dram.num_writes::total             1                       # Number of write requests responded to by this memory
system.mem_ctrls.dram.bw_read::.cpu.inst    723509934                       # Total read bandwidth from this memory (bytes/s)
system.mem_ctrls.dram.bw_read::.cpu.data    299668874                       # Total read bandwidth from this memory (bytes/s)
system.mem_ctrls.dram.bw_read::total       1023178808                       # Total read bandwidth from this memory (bytes/s)
system.mem_ctrls.dram.bw_inst_read::.cpu.inst    723509934                       # Instruction read bandwidth from this memory (bytes/s)
system.mem_ctrls.dram.bw_inst_read::total    723509934                       # Instruction read bandwidth from this memory (bytes/s)
system.mem_ctrls.dram.bw_write::.writebacks      1655629                       # Write bandwidth from this memory (bytes/s)
system.mem_ctrls.dram.bw_write::total         1655629                       # Write bandwidth from this memory (bytes/s)
system.mem_ctrls.dram.bw_total::.writebacks      1655629                       # Total bandwidth to/from this memory (bytes/s)
system.mem_ctrls.dram.bw_total::.cpu.inst    723509934                       # Total bandwidth to/from this memory (bytes/s)
system.mem_ctrls.dram.bw_total::.cpu.data    299668874                       # Total bandwidth to/from this memory (bytes/s)
system.mem_ctrls.dram.bw_total::total      1024834437                       # Total bandwidth to/from this memory (bytes/s)
system.mem_ctrls.dram.readBursts                  592                       # Number of DRAM read bursts
system.mem_ctrls.dram.writeBursts                  80                       # Number of DRAM write bursts
system.mem_ctrls.dram.perBankRdBursts::0           59                       # Per bank write bursts
system.mem_ctrls.dram.perBankRdBursts::1            2                       # Per bank write bursts
system.mem_ctrls.dram.perBankRdBursts::2           23                       # Per bank write bursts
system.mem_ctrls.dram.perBankRdBursts::3           47                       # Per bank write bursts
system.mem_ctrls.dram.perBankRdBursts::4           22                       # Per bank write bursts
system.mem_ctrls.dram.perBankRdBursts::5           29                       # Per bank write bursts
system.mem_ctrls.dram.perBankRdBursts::6           56                       # Per bank write bursts
system.mem_ctrls.dram.perBankRdBursts::7           44                       # Per bank write bursts
system.mem_ctrls.dram.perBankRdBursts::8           77                       # Per bank write bursts
system.mem_ctrls.dram.perBankRdBursts::9           83                       # Per bank write bursts
system.mem_ctrls.dram.perBankRdBursts::10           39                       # Per bank write bursts
system.mem_ctrls.dram.perBankRdBursts::11           76                       # Per bank write bursts
system.mem_ctrls.dram.perBankRdBursts::12           20                       # Per bank write bursts
system.mem_ctrls.dram.perBankRdBursts::13            7                       # Per bank write bursts
system.mem_ctrls.dram.perBankRdBursts::14            8                       # Per bank write bursts
system.mem_ctrls.dram.perBankRdBursts::15            0                       # Per bank write bursts
system.mem_ctrls.dram.perBankWrBursts::0           14                       # Per bank write bursts
system.mem_ctrls.dram.perBankWrBursts::1            0                       # Per bank write bursts
system.mem_ctrls.dram.perBankWrBursts::2            7                       # Per bank write bursts
system.mem_ctrls.dram.perBankWrBursts::3            4                       # Per bank write bursts
system.mem_ctrls.dram.perBankWrBursts::4            1                       # Per bank write bursts
system.mem_ctrls.dram.perBankWrBursts::5            2                       # Per bank write bursts
system.mem_ctrls.dram.perBankWrBursts::6            2                       # Per bank write bursts
system.mem_ctrls.dram.perBankWrBursts::7            7                       # Per bank write bursts
system.mem_ctrls.dram.perBankWrBursts::8           23                       # Per bank write bursts
system.mem_ctrls.dram.perBankWrBursts::9            6                       # Per bank write bursts
system.mem_ctrls.dram.perBankWrBursts::10            0                       # Per bank write bursts
system.mem_ctrls.dram.perBankWrBursts::11           12                       # Per bank write bursts
system.mem_ctrls.dram.perBankWrBursts::12            2                       # Per bank write bursts
system.mem_ctrls.dram.perBankWrBursts::13            0                       # Per bank write bursts
system.mem_ctrls.dram.perBankWrBursts::14            0                       # Per bank write bursts
system.mem_ctrls.dram.perBankWrBursts::15            0                       # Per bank write bursts
system.mem_ctrls.dram.totQLat                 4358250                       # Total ticks spent queuing
system.mem_ctrls.dram.totBusLat               2960000                       # Total ticks spent in databus transfers
system.mem_ctrls.dram.totMemAccLat           15458250                       # Total ticks spent from burst creation until serviced by the DRAM
system.mem_ctrls.dram.avgQLat                 7361.91                       # Average queueing delay per DRAM burst
system.mem_ctrls.dram.avgBusLat               5000.00                       # Average bus latency per DRAM burst
system.mem_ctrls.dram.avgMemAccLat           26111.91                       # Average memory access latency per DRAM burst
system.mem_ctrls.dram.readRowHits                 477                       # Number of row buffer hits during reads
system.mem_ctrls.dram.writeRowHits                 63                       # Number of row buffer hits during writes
system.mem_ctrls.dram.readRowHitRate            80.57                       # Row buffer hit rate for reads
system.mem_ctrls.dram.writeRowHitRate           78.75                       # Row buffer hit rate for writes
system.mem_ctrls.dram.bytesPerActivate::samples          120                       # Bytes accessed per row activation
system.mem_ctrls.dram.bytesPerActivate::mean   327.466667                       # Bytes accessed per row activation
system.mem_ctrls.dram.bytesPerActivate::gmean   219.486098                       # Bytes accessed per row activation
system.mem_ctrls.dram.bytesPerActivate::stdev   303.400973                       # Bytes accessed per row activation
system.mem_ctrls.dram.bytesPerActivate::0-127           28     23.33%     23.33% # Bytes accessed per row activation
system.mem_ctrls.dram.bytesPerActivate::128-255           32     26.67%     50.00% # Bytes accessed per row activation
system.mem_ctrls.dram.bytesPerActivate::256-383           25     20.83%     70.83% # Bytes accessed per row activation
system.mem_ctrls.dram.bytesPerActivate::384-511           11      9.17%     80.00% # Bytes accessed per row activation
system.mem_ctrls.dram.bytesPerActivate::512-639            4      3.33%     83.33% # Bytes accessed per row activation
system.mem_ctrls.dram.bytesPerActivate::640-767            3      2.50%     85.83% # Bytes accessed per row activation
system.mem_ctrls.dram.bytesPerActivate::768-895            3      2.50%     88.33% # Bytes accessed per row activation
system.mem_ctrls.dram.bytesPerActivate::896-1023            1      0.83%     89.17% # Bytes accessed per row activation
system.mem_ctrls.dram.bytesPerActivate::1024-1151           13     10.83%    100.00% # Bytes accessed per row activation
system.mem_ctrls.dram.bytesPerActivate::total          120                       # Bytes accessed per row activation
system.mem_ctrls.dram.bytesRead                 37888                       # Total number of bytes read from DRAM
system.mem_ctrls.dram.bytesWritten               5120                       # Total number of bytes written to DRAM
system.mem_ctrls.dram.avgRdBW              980.132450                       # Average DRAM read bandwidth in MiBytes/s
system.mem_ctrls.dram.avgWrBW              132.450331                       # Average DRAM write bandwidth in MiBytes/s
system.mem_ctrls.dram.peakBW                 12800.00                       # Theoretical peak bandwidth in MiByte/s
system.mem_ctrls.dram.busUtil                    8.69                       # Data bus utilization in percentage
system.mem_ctrls.dram.busUtilRead                7.66                       # Data bus utilization in percentage for reads
system.mem_ctrls.dram.busUtilWrite               1.03                       # Data bus utilization in percentage for writes
system.mem_ctrls.dram.pageHitRate               80.36                       # Row buffer hit rate, read and write combined
system.mem_ctrls.dram.power_state.pwrStateResidencyTicks::UNDEFINED     38656000                       # Cumulative time (in ticks) in various power states
system.mem_ctrls.dram.rank0.actEnergy          385560                       # Energy for activate commands per rank (pJ)
system.mem_ctrls.dram.rank0.preEnergy          178365                       # Energy for precharge commands per rank (pJ)
system.mem_ctrls.dram.rank0.readEnergy        2013480                       # Energy for read commands per rank (pJ)
system.mem_ctrls.dram.rank0.writeEnergy        193140                       # Energy for write commands per rank (pJ)
system.mem_ctrls.dram.rank0.refreshEnergy 2458560.000000                       # Energy for refresh commands per rank (pJ)
system.mem_ctrls.dram.rank0.actBackEnergy     16310550                       # Energy for active background per rank (pJ)
system.mem_ctrls.dram.rank0.preBackEnergy      1108800                       # Energy for precharge background per rank (pJ)
system.mem_ctrls.dram.rank0.actPowerDownEnergy            0                       # Energy for active power-down per rank (pJ)
system.mem_ctrls.dram.rank0.prePowerDownEnergy            0                       # Energy for precharge power-down per rank (pJ)
system.mem_ctrls.dram.rank0.selfRefreshEnergy            0                       # Energy for self refresh per rank (pJ)
system.mem_ctrls.dram.rank0.totalEnergy      22648455                       # Total energy per rank (pJ)
system.mem_ctrls.dram.rank0.averagePower   585.897532                       # Core power per rank (mW)
system.mem_ctrls.dram.rank0.totalIdleTime            0                       # Total Idle time Per DRAM Rank
system.mem_ctrls.dram.rank0.pwrStateTime::IDLE      2733000                       # Time in different power states
system.mem_ctrls.dram.rank0.pwrStateTime::REF      1040000                       # Time in different power states
system.mem_ctrls.dram.rank0.pwrStateTime::SREF            0                       # Time in different power states
system.mem_ctrls.dram.rank0.pwrStateTime::PRE_PDN            0                       # Time in different power states
system.mem_ctrls.dram.rank0.pwrStateTime::ACT     34883000                       # Time in different power states
system.mem_ctrls.dram.rank0.pwrStateTime::ACT_PDN            0                       # Time in different power states
system.mem_ctrls.dram.rank1.actEnergy          556920                       # Energy for activate commands per rank (pJ)
system.mem_ctrls.dram.rank1.preEnergy          277035                       # Energy for precharge commands per rank (pJ)
system.mem_ctrls.dram.rank1.readEnergy        2213400                       # Energy for read commands per rank (pJ)
system.mem_ctrls.dram.rank1.writeEnergy        224460                       # Energy for write commands per rank (pJ)
system.mem_ctrls.dram.rank1.refreshEnergy 2458560.000000                       # Energy for refresh commands per rank (pJ)
system.mem_ctrls.dram.rank1.actBackEnergy     17533200                       # Energy for active background per rank (pJ)
system.mem_ctrls.dram.rank1.preBackEnergy        79200                       # Energy for precharge background per rank (pJ)
system.mem_ctrls.dram.rank1.actPowerDownEnergy            0                       # Energy for active power-down per rank (pJ)
system.mem_ctrls.dram.rank1.prePowerDownEnergy            0                       # Energy for precharge power-down per rank (pJ)
system.mem_ctrls.dram.rank1.selfRefreshEnergy            0                       # Energy for self refresh per rank (pJ)
system.mem_ctrls.dram.rank1.totalEnergy      23342775                       # Total energy per rank (pJ)
system.mem_ctrls.dram.rank1.averagePower   603.859039                       # Core power per rank (mW)
system.mem_ctrls.dram.rank1.totalIdleTime            0                       # Total Idle time Per DRAM Rank
system.mem_ctrls.dram.rank1.pwrStateTime::IDLE        82000                       # Time in different power states
system.mem_ctrls.dram.rank1.pwrStateTime::REF      1040000                       # Time in different power states
system.mem_ctrls.dram.rank1.pwrStateTime::SREF            0                       # Time in different power states
system.mem_ctrls.dram.rank1.pwrStateTime::PRE_PDN            0                       # Time in different power states
system.mem_ctrls.dram.rank1.pwrStateTime::ACT     37534000                       # Time in different power states
system.mem_ctrls.dram.rank1.pwrStateTime::ACT_PDN            0                       # Time in different power states
system.mem_ctrls.power_state.pwrStateResidencyTicks::UNDEFINED     38656000                       # Cumulative time (in ticks) in various power states
system.membus.trans_dist::ReadResp                551                       # Transaction distribution
system.membus.trans_dist::WritebackDirty            1                       # Transaction distribution
system.membus.trans_dist::WritebackClean          110                       # Transaction distribution
system.membus.trans_dist::CleanEvict                2                       # Transaction distribution
system.membus.trans_dist::ReadExReq                67                       # Transaction distribution
system.membus.trans_dist::ReadExResp               67                       # Transaction distribution
system.membus.trans_dist::ReadCleanReq            437                       # Transaction distribution
system.membus.trans_dist::ReadSharedReq           114                       # Transaction distribution
system.membus.pkt_count_system.cpu.icache.mem_side_port::system.mem_ctrls.port          984                       # Packet count per connected requestor and responder (bytes)
system.membus.pkt_count_system.cpu.dcache.mem_side_port::system.mem_ctrls.port          365                       # Packet count per connected requestor and responder (bytes)
system.membus.pkt_count::total                   1349                       # Packet count per connected requestor and responder (bytes)
system.membus.pkt_size_system.cpu.icache.mem_side_port::system.mem_ctrls.port        35008                       # Cumulative packet size per connected requestor and responder (bytes)
system.membus.pkt_size_system.cpu.dcache.mem_side_port::system.mem_ctrls.port        11648                       # Cumulative packet size per connected requestor and responder (bytes)
system.membus.pkt_size::total                   46656                       # Cumulative packet size per connected requestor and responder (bytes)
system.membus.snoops                                0                       # Total snoops (count)
system.membus.snoopTraffic                          0                       # Total snoop traffic (bytes)
system.membus.snoop_fanout::samples               618                       # Request fanout histogram
system.membus.snoop_fanout::mean             0.042071                       # Request fanout histogram
system.membus.snoop_fanout::stdev            0.200914                       # Request fanout histogram
system.membus.snoop_fanout::underflows              0      0.00%      0.00% # Request fanout histogram
system.membus.snoop_fanout::0                     592     95.79%     95.79% # Request fanout histogram
system.membus.snoop_fanout::1                      26      4.21%    100.00% # Request fanout histogram
system.membus.snoop_fanout::2                       0      0.00%    100.00% # Request fanout histogram
system.membus.snoop_fanout::overflows               0      0.00%    100.00% # Request fanout histogram
system.membus.snoop_fanout::min_value               0                       # Request fanout histogram
system.membus.snoop_fanout::max_value               1                       # Request fanout histogram
system.membus.snoop_fanout::total                 618                       # Request fanout histogram
system.membus.power_state.pwrStateResidencyTicks::UNDEFINED     38656000                       # Cumulative time (in ticks) in various power states
system.membus.reqLayer0.occupancy             1271000                       # Layer occupancy (ticks)
system.membus.reqLayer0.utilization               3.3                       # Layer utilization (%)
system.membus.respLayer1.occupancy            2313750                       # Layer occupancy (ticks)
system.membus.respLayer1.utilization              6.0                       # Layer utilization (%)
system.membus.respLayer2.occupancy             971000                       # Layer occupancy (ticks)
system.membus.respLayer2.utilization              2.5                       # Layer utilization (%)
system.voltage_domain.voltage                       1                       # Voltage in Volts

---------- End Simulation Statistics   ----------
