
---------- Begin Simulation Statistics ----------
final_tick                                   39632000                       # Number of ticks from beginning of simulation (restored from checkpoints and never reset)
host_inst_rate                                 126703                       # Simulator instruction rate (inst/s)
host_mem_usage                                 656944                       # Number of bytes of host memory used
host_op_rate                                   145027                       # Simulator op (including micro ops) rate (op/s)
host_seconds                                     0.10                       # Real time elapsed on the host
host_tick_rate                              381876988                       # Simulator tick rate (ticks/s)
sim_freq                                 1000000000000                       # Frequency of simulated ticks
sim_insts                                       13132                       # Number of instructions simulated
sim_ops                                         15049                       # Number of ops (including micro ops) simulated
sim_seconds                                  0.000040                       # Number of seconds simulated
sim_ticks                                    39632000                       # Number of ticks simulated
system.cpu.committedInsts                       13132                       # Number of instructions committed
system.cpu.committedOps                         15049                       # Number of ops (including micro ops) committed
system.cpu.cpi                               6.035943                       # CPI: cycles per instruction
system.cpu.discardedOps                          2007                       # Number of ops (including micro ops) which were discarded before commit
system.cpu.idleCycles                           56053                       # Total number of cycles that the object has spent stopped
system.cpu.ipc                               0.165674                       # IPC: instructions per cycle
system.cpu.numCycles                            79264                       # number of cpu cycles simulated
system.cpu.numFetchSuspends                         0                       # Number of times Execute suspended instruction fetching
system.cpu.numWorkItemsCompleted                    0                       # number of work items this cpu completed
system.cpu.numWorkItemsStarted                      0                       # number of work items this cpu started
system.cpu.op_class_0::No_OpClass                   0      0.00%      0.00% # Class of committed instruction
system.cpu.op_class_0::IntAlu                   10132     67.33%     67.33% # Class of committed instruction
system.cpu.op_class_0::IntMult                     70      0.47%     67.79% # Class of committed instruction
system.cpu.op_class_0::IntDiv                       0      0.00%     67.79% # Class of committed instruction
system.cpu.op_class_0::FloatAdd                     0      0.00%     67.79% # Class of committed instruction
system.cpu.op_class_0::FloatCmp                     0      0.00%     67.79% # Class of committed instruction
system.cpu.op_class_0::FloatCvt                     0      0.00%     67.79% # Class of committed instruction
system.cpu.op_class_0::FloatMult                    0      0.00%     67.79% # Class of committed instruction
system.cpu.op_class_0::FloatMultAcc                 0      0.00%     67.79% # Class of committed instruction
system.cpu.op_class_0::FloatDiv                     0      0.00%     67.79% # Class of committed instruction
system.cpu.op_class_0::FloatMisc                    0      0.00%     67.79% # Class of committed instruction
system.cpu.op_class_0::FloatSqrt                    0      0.00%     67.79% # Class of committed instruction
system.cpu.op_class_0::SimdAdd                      0      0.00%     67.79% # Class of committed instruction
system.cpu.op_class_0::SimdAddAcc                   0      0.00%     67.79% # Class of committed instruction
system.cpu.op_class_0::SimdAlu                      0      0.00%     67.79% # Class of committed instruction
system.cpu.op_class_0::SimdCmp                      0      0.00%     67.79% # Class of committed instruction
system.cpu.op_class_0::SimdCvt                      0      0.00%     67.79% # Class of committed instruction
system.cpu.op_class_0::SimdMisc                     0      0.00%     67.79% # Class of committed instruction
system.cpu.op_class_0::SimdMult                     0      0.00%     67.79% # Class of committed instruction
system.cpu.op_class_0::SimdMultAcc                  0      0.00%     67.79% # Class of committed instruction
system.cpu.op_class_0::SimdShift                    0      0.00%     67.79% # Class of committed instruction
system.cpu.op_class_0::SimdShiftAcc                 0      0.00%     67.79% # Class of committed instruction
system.cpu.op_class_0::SimdDiv                      0      0.00%     67.79% # Class of committed instruction
system.cpu.op_class_0::SimdSqrt                     0      0.00%     67.79% # Class of committed instruction
system.cpu.op_class_0::SimdFloatAdd                 0      0.00%     67.79% # Class of committed instruction
system.cpu.op_class_0::SimdFloatAlu                 0      0.00%     67.79% # Class of committed instruction
system.cpu.op_class_0::SimdFloatCmp                 0      0.00%     67.79% # Class of committed instruction
system.cpu.op_class_0::SimdFloatCvt                 0      0.00%     67.79% # Class of committed instruction
system.cpu.op_class_0::SimdFloatDiv                 0      0.00%     67.79% # Class of committed instruction
system.cpu.op_class_0::SimdFloatMisc               21      0.14%     67.93% # Class of committed instruction
system.cpu.op_class_0::SimdFloatMult                0      0.00%     67.93% # Class of committed instruction
system.cpu.op_class_0::SimdFloatMultAcc             0      0.00%     67.93% # Class of committed instruction
system.cpu.op_class_0::SimdFloatSqrt                0      0.00%     67.93% # Class of committed instruction
system.cpu.op_class_0::SimdReduceAdd                0      0.00%     67.93% # Class of committed instruction
system.cpu.op_class_0::SimdReduceAlu                0      0.00%     67.93% # Class of committed instruction
system.cpu.op_class_0::SimdReduceCmp                0      0.00%     67.93% # Class of committed instruction
system.cpu.op_class_0::SimdFloatReduceAdd            0      0.00%     67.93% # Class of committed instruction
system.cpu.op_class_0::SimdFloatReduceCmp            0      0.00%     67.93% # Class of committed instruction
system.cpu.op_class_0::SimdAes                      0      0.00%     67.93% # Class of committed instruction
system.cpu.op_class_0::SimdAesMix                   0      0.00%     67.93% # Class of committed instruction
system.cpu.op_class_0::SimdSha1Hash                 0      0.00%     67.93% # Class of committed instruction
system.cpu.op_class_0::SimdSha1Hash2                0      0.00%     67.93% # Class of committed instruction
system.cpu.op_class_0::SimdSha256Hash               0      0.00%     67.93% # Class of committed instruction
system.cpu.op_class_0::SimdSha256Hash2              0      0.00%     67.93% # Class of committed instruction
system.cpu.op_class_0::SimdShaSigma2                0      0.00%     67.93% # Class of committed instruction
system.cpu.op_class_0::SimdShaSigma3                0      0.00%     67.93% # Class of committed instruction
system.cpu.op_class_0::SimdPredAlu                  0      0.00%     67.93% # Class of committed instruction
system.cpu.op_class_0::MemRead                   2689     17.87%     85.80% # Class of committed instruction
system.cpu.op_class_0::MemWrite                  2137     14.20%    100.00% # Class of committed instruction
system.cpu.op_class_0::FloatMemRead                 0      0.00%    100.00% # Class of committed instruction
system.cpu.op_class_0::FloatMemWrite                0      0.00%    100.00% # Class of committed instruction
system.cpu.op_class_0::IprAccess                    0      0.00%    100.00% # Class of committed instruction
system.cpu.op_class_0::InstPrefetch                 0      0.00%    100.00% # Class of committed instruction
system.cpu.op_class_0::total                    15049                       # Class of committed instruction
system.cpu.tickCycles                           23211                       # Number of cycles that the object actually ticked
system.cpu.workload.numSyscalls                    11                       # Number of system calls
system.membus.snoop_filter.hit_multi_requests            6                       # Number of requests hitting in the snoop filter with multiple (>1) holders of the requested data.
system.membus.snoop_filter.hit_multi_snoops            0                       # Number of snoops hitting in the snoop filter with multiple (>1) holders of the requested data.
system.membus.snoop_filter.hit_single_requests          131                       # Number of requests hitting in the snoop filter with a single holder of the requested data.
system.membus.snoop_filter.hit_single_snoops            0                       # Number of snoops hitting in the snoop filter with a single holder of the requested data.
system.membus.snoop_filter.tot_requests           727                       # Total number of requests made to the snoop filter.
system.membus.snoop_filter.tot_snoops               0                       # Total number of snoops made to the snoop filter.
system.clk_domain.clock                          1250                       # Clock period in ticks
system.cpu.branchPred.lookups                    4270                       # Number of BP lookups
system.cpu.branchPred.condPredicted              2878                       # Number of conditional branches predicted
system.cpu.branchPred.condIncorrect               623                       # Number of conditional branches incorrect
system.cpu.branchPred.BTBLookups                 1907                       # Number of BTB lookups
system.cpu.branchPred.BTBHits                     942                       # Number of BTB hits
system.cpu.branchPred.BTBHitPct             49.396959                       # BTB Hit Percentage
system.cpu.branchPred.RASUsed                     364                       # Number of times the RAS was used to get a target.
system.cpu.branchPred.RASIncorrect                  1                       # Number of incorrect RAS predictions.
system.cpu.branchPred.indirectLookups             231                       # Number of indirect predictor lookups.
system.cpu.branchPred.indirectHits                 76                       # Number of indirect target hits.
system.cpu.branchPred.indirectMisses              155                       # Number of indirect misses.
system.cpu.branchPred.indirectMispredicted           75                       # Number of mispredicted indirect branches.
system.cpu.dcache.demand_hits::.cpu.data         4716                       # number of demand (read+write) hits
system.cpu.dcache.demand_hits::total             4716                       # number of demand (read+write) hits
system.cpu.dcache.overall_hits::.cpu.data         4739                       # number of overall hits
system.cpu.dcache.overall_hits::total            4739                       # number of overall hits
system.cpu.dcache.demand_misses::.cpu.data          225                       # number of demand (read+write) misses
system.cpu.dcache.demand_misses::total            225                       # number of demand (read+write) misses
system.cpu.dcache.overall_misses::.cpu.data          237                       # number of overall misses
system.cpu.dcache.overall_misses::total           237                       # number of overall misses
system.cpu.dcache.demand_miss_latency::.cpu.data     14199000                       # number of demand (read+write) miss cycles
system.cpu.dcache.demand_miss_latency::total     14199000                       # number of demand (read+write) miss cycles
system.cpu.dcache.overall_miss_latency::.cpu.data     14199000                       # number of overall miss cycles
system.cpu.dcache.overall_miss_latency::total     14199000                       # number of overall miss cycles
system.cpu.dcache.demand_accesses::.cpu.data         4941                       # number of demand (read+write) accesses
system.cpu.dcache.demand_accesses::total         4941                       # number of demand (read+write) accesses
system.cpu.dcache.overall_accesses::.cpu.data         4976                       # number of overall (read+write) accesses
system.cpu.dcache.overall_accesses::total         4976                       # number of overall (read+write) accesses
system.cpu.dcache.demand_miss_rate::.cpu.data     0.045537                       # miss rate for demand accesses
system.cpu.dcache.demand_miss_rate::total     0.045537                       # miss rate for demand accesses
system.cpu.dcache.overall_miss_rate::.cpu.data     0.047629                       # miss rate for overall accesses
system.cpu.dcache.overall_miss_rate::total     0.047629                       # miss rate for overall accesses
system.cpu.dcache.demand_avg_miss_latency::.cpu.data 63106.666667                       # average overall miss latency
system.cpu.dcache.demand_avg_miss_latency::total 63106.666667                       # average overall miss latency
system.cpu.dcache.overall_avg_miss_latency::.cpu.data 59911.392405                       # average overall miss latency
system.cpu.dcache.overall_avg_miss_latency::total 59911.392405                       # average overall miss latency
system.cpu.dcache.blocked_cycles::no_mshrs            0                       # number of cycles access was blocked
system.cpu.dcache.blocked_cycles::no_targets            0                       # number of cycles access was blocked
system.cpu.dcache.blocked::no_mshrs                 0                       # number of cycles access was blocked
system.cpu.dcache.blocked::no_targets               0                       # number of cycles access was blocked
system.cpu.dcache.avg_blocked_cycles::no_mshrs          nan                       # average number of cycles each access was blocked
system.cpu.dcache.avg_blocked_cycles::no_targets          nan                       # average number of cycles each access was blocked
system.cpu.dcache.writebacks::.writebacks            1                       # number of writebacks
system.cpu.dcache.writebacks::total                 1                       # number of writebacks
system.cpu.dcache.demand_mshr_hits::.cpu.data           54                       # number of demand (read+write) MSHR hits
system.cpu.dcache.demand_mshr_hits::total           54                       # number of demand (read+write) MSHR hits
system.cpu.dcache.overall_mshr_hits::.cpu.data           54                       # number of overall MSHR hits
system.cpu.dcache.overall_mshr_hits::total           54                       # number of overall MSHR hits
system.cpu.dcache.demand_mshr_misses::.cpu.data          171                       # number of demand (read+write) MSHR misses
system.cpu.dcache.demand_mshr_misses::total          171                       # number of demand (read+write) MSHR misses
system.cpu.dcache.overall_mshr_misses::.cpu.data          181                       # number of overall MSHR misses
system.cpu.dcache.overall_mshr_misses::total          181                       # number of overall MSHR misses
system.cpu.dcache.demand_mshr_miss_latency::.cpu.data     10515250                       # number of demand (read+write) MSHR miss cycles
system.cpu.dcache.demand_mshr_miss_latency::total     10515250                       # number of demand (read+write) MSHR miss cycles
system.cpu.dcache.overall_mshr_miss_latency::.cpu.data     11125750                       # number of overall MSHR miss cycles
system.cpu.dcache.overall_mshr_miss_latency::total     11125750                       # number of overall MSHR miss cycles
system.cpu.dcache.demand_mshr_miss_rate::.cpu.data     0.034608                       # mshr miss rate for demand accesses
system.cpu.dcache.demand_mshr_miss_rate::total     0.034608                       # mshr miss rate for demand accesses
system.cpu.dcache.overall_mshr_miss_rate::.cpu.data     0.036375                       # mshr miss rate for overall accesses
system.cpu.dcache.overall_mshr_miss_rate::total     0.036375                       # mshr miss rate for overall accesses
system.cpu.dcache.demand_avg_mshr_miss_latency::.cpu.data 61492.690058                       # average overall mshr miss latency
system.cpu.dcache.demand_avg_mshr_miss_latency::total 61492.690058                       # average overall mshr miss latency
system.cpu.dcache.overall_avg_mshr_miss_latency::.cpu.data 61468.232044                       # average overall mshr miss latency
system.cpu.dcache.overall_avg_mshr_miss_latency::total 61468.232044                       # average overall mshr miss latency
system.cpu.dcache.replacements                      3                       # number of replacements
system.cpu.dcache.ReadReq_hits::.cpu.data         2761                       # number of ReadReq hits
system.cpu.dcache.ReadReq_hits::total            2761                       # number of ReadReq hits
system.cpu.dcache.ReadReq_misses::.cpu.data          109                       # number of ReadReq misses
system.cpu.dcache.ReadReq_misses::total           109                       # number of ReadReq misses
system.cpu.dcache.ReadReq_miss_latency::.cpu.data      6714000                       # number of ReadReq miss cycles
system.cpu.dcache.ReadReq_miss_latency::total      6714000                       # number of ReadReq miss cycles
system.cpu.dcache.ReadReq_accesses::.cpu.data         2870                       # number of ReadReq accesses(hits+misses)
system.cpu.dcache.ReadReq_accesses::total         2870                       # number of ReadReq accesses(hits+misses)
system.cpu.dcache.ReadReq_miss_rate::.cpu.data     0.037979                       # miss rate for ReadReq accesses
system.cpu.dcache.ReadReq_miss_rate::total     0.037979                       # miss rate for ReadReq accesses
system.cpu.dcache.ReadReq_avg_miss_latency::.cpu.data 61596.330275                       # average ReadReq miss latency
system.cpu.dcache.ReadReq_avg_miss_latency::total 61596.330275                       # average ReadReq miss latency
system.cpu.dcache.ReadReq_mshr_hits::.cpu.data            5                       # number of ReadReq MSHR hits
system.cpu.dcache.ReadReq_mshr_hits::total            5                       # number of ReadReq MSHR hits
system.cpu.dcache.ReadReq_mshr_misses::.cpu.data          104                       # number of ReadReq MSHR misses
system.cpu.dcache.ReadReq_mshr_misses::total          104                       # number of ReadReq MSHR misses
system.cpu.dcache.ReadReq_mshr_miss_latency::.cpu.data      6274750                       # number of ReadReq MSHR miss cycles
system.cpu.dcache.ReadReq_mshr_miss_latency::total      6274750                       # number of ReadReq MSHR miss cycles
system.cpu.dcache.ReadReq_mshr_miss_rate::.cpu.data     0.036237                       # mshr miss rate for ReadReq accesses
system.cpu.dcache.ReadReq_mshr_miss_rate::total     0.036237                       # mshr miss rate for ReadReq accesses
system.cpu.dcache.ReadReq_avg_mshr_miss_latency::.cpu.data 60334.134615                       # average ReadReq mshr miss latency
system.cpu.dcache.ReadReq_avg_mshr_miss_latency::total 60334.134615                       # average ReadReq mshr miss latency
system.cpu.dcache.WriteReq_hits::.cpu.data         1955                       # number of WriteReq hits
system.cpu.dcache.WriteReq_hits::total           1955                       # number of WriteReq hits
system.cpu.dcache.WriteReq_misses::.cpu.data          116                       # number of WriteReq misses
system.cpu.dcache.WriteReq_misses::total          116                       # number of WriteReq misses
system.cpu.dcache.WriteReq_miss_latency::.cpu.data      7485000                       # number of WriteReq miss cycles
system.cpu.dcache.WriteReq_miss_latency::total      7485000                       # number of WriteReq miss cycles
system.cpu.dcache.WriteReq_accesses::.cpu.data         2071                       # number of WriteReq accesses(hits+misses)
system.cpu.dcache.WriteReq_accesses::total         2071                       # number of WriteReq accesses(hits+misses)
system.cpu.dcache.WriteReq_miss_rate::.cpu.data     0.056012                       # miss rate for WriteReq accesses
system.cpu.dcache.WriteReq_miss_rate::total     0.056012                       # miss rate for WriteReq accesses
system.cpu.dcache.WriteReq_avg_miss_latency::.cpu.data 64525.862069                       # average WriteReq miss latency
system.cpu.dcache.WriteReq_avg_miss_latency::total 64525.862069                       # average WriteReq miss latency
system.cpu.dcache.WriteReq_mshr_hits::.cpu.data           49                       # number of WriteReq MSHR hits
system.cpu.dcache.WriteReq_mshr_hits::total           49                       # number of WriteReq MSHR hits
system.cpu.dcache.WriteReq_mshr_misses::.cpu.data           67                       # number of WriteReq MSHR misses
system.cpu.dcache.WriteReq_mshr_misses::total           67                       # number of WriteReq MSHR misses
system.cpu.dcache.WriteReq_mshr_miss_latency::.cpu.data      4240500                       # number of WriteReq MSHR miss cycles
system.cpu.dcache.WriteReq_mshr_miss_latency::total      4240500                       # number of WriteReq MSHR miss cycles
system.cpu.dcache.WriteReq_mshr_miss_rate::.cpu.data     0.032352                       # mshr miss rate for WriteReq accesses
system.cpu.dcache.WriteReq_mshr_miss_rate::total     0.032352                       # mshr miss rate for WriteReq accesses
system.cpu.dcache.WriteReq_avg_mshr_miss_latency::.cpu.data 63291.044776                       # average WriteReq mshr miss latency
system.cpu.dcache.WriteReq_avg_mshr_miss_latency::total 63291.044776                       # average WriteReq mshr miss latency
system.cpu.dcache.SoftPFReq_hits::.cpu.data           23                       # number of SoftPFReq hits
system.cpu.dcache.SoftPFReq_hits::total            23                       # number of SoftPFReq hits
system.cpu.dcache.SoftPFReq_misses::.cpu.data           12                       # number of SoftPFReq misses
system.cpu.dcache.SoftPFReq_misses::total           12                       # number of SoftPFReq misses
system.cpu.dcache.SoftPFReq_accesses::.cpu.data           35                       # number of SoftPFReq accesses(hits+misses)
system.cpu.dcache.SoftPFReq_accesses::total           35                       # number of SoftPFReq accesses(hits+misses)
system.cpu.dcache.SoftPFReq_miss_rate::.cpu.data     0.342857                       # miss rate for SoftPFReq accesses
system.cpu.dcache.SoftPFReq_miss_rate::total     0.342857                       # miss rate for SoftPFReq accesses
system.cpu.dcache.SoftPFReq_mshr_misses::.cpu.data           10                       # number of SoftPFReq MSHR misses
system.cpu.dcache.SoftPFReq_mshr_misses::total           10                       # number of SoftPFReq MSHR misses
system.cpu.dcache.SoftPFReq_mshr_miss_latency::.cpu.data       610500                       # number of SoftPFReq MSHR miss cycles
system.cpu.dcache.SoftPFReq_mshr_miss_latency::total       610500                       # number of SoftPFReq MSHR miss cycles
system.cpu.dcache.SoftPFReq_mshr_miss_rate::.cpu.data     0.285714                       # mshr miss rate for SoftPFReq accesses
system.cpu.dcache.SoftPFReq_mshr_miss_rate::total     0.285714                       # mshr miss rate for SoftPFReq accesses
system.cpu.dcache.SoftPFReq_avg_mshr_miss_latency::.cpu.data        61050                       # average SoftPFReq mshr miss latency
system.cpu.dcache.SoftPFReq_avg_mshr_miss_latency::total        61050                       # average SoftPFReq mshr miss latency
system.cpu.dcache.LoadLockedReq_hits::.cpu.data           20                       # number of LoadLockedReq hits
system.cpu.dcache.LoadLockedReq_hits::total           20                       # number of LoadLockedReq hits
system.cpu.dcache.LoadLockedReq_accesses::.cpu.data           20                       # number of LoadLockedReq accesses(hits+misses)
system.cpu.dcache.LoadLockedReq_accesses::total           20                       # number of LoadLockedReq accesses(hits+misses)
system.cpu.dcache.StoreCondReq_hits::.cpu.data           20                       # number of StoreCondReq hits
system.cpu.dcache.StoreCondReq_hits::total           20                       # number of StoreCondReq hits
system.cpu.dcache.StoreCondReq_accesses::.cpu.data           20                       # number of StoreCondReq accesses(hits+misses)
system.cpu.dcache.StoreCondReq_accesses::total           20                       # number of StoreCondReq accesses(hits+misses)
system.cpu.dcache.power_state.pwrStateResidencyTicks::UNDEFINED     39632000                       # Cumulative time (in ticks) in various power states
system.cpu.dcache.tags.tagsinuse           106.225804                       # Cycle average of tags in use
system.cpu.dcache.tags.total_refs                4960                       # Total number of references to valid blocks.
system.cpu.dcache.tags.sampled_refs               181                       # Sample count of references to valid blocks.
system.cpu.dcache.tags.avg_refs             27.403315                       # Average number of references to valid blocks.
system.cpu.dcache.tags.warmup_cycle            150000                       # Cycle when the warmup percentage was hit.
system.cpu.dcache.tags.occ_blocks::.cpu.data   106.225804                       # Average occupied blocks per requestor
system.cpu.dcache.tags.occ_percent::.cpu.data     0.103736                       # Average percentage of cache occupancy
system.cpu.dcache.tags.occ_percent::total     0.103736                       # Average percentage of cache occupancy
system.cpu.dcache.tags.occ_task_id_blocks::1024          178                       # Occupied blocks per task id
system.cpu.dcache.tags.age_task_id_blocks_1024::0           30                       # Occupied blocks per task id
system.cpu.dcache.tags.age_task_id_blocks_1024::1          148                       # Occupied blocks per task id
system.cpu.dcache.tags.occ_task_id_percent::1024     0.173828                       # Percentage of cache occupancy per task id
system.cpu.dcache.tags.tag_accesses             10213                       # Number of tag accesses
system.cpu.dcache.tags.data_accesses            10213                       # Number of data accesses
system.cpu.dcache.tags.power_state.pwrStateResidencyTicks::UNDEFINED     39632000                       # Cumulative time (in ticks) in various power states
system.cpu.dtb.instHits                             0                       # ITB inst hits
system.cpu.dtb.instMisses                           0                       # ITB inst misses
system.cpu.dtb.readHits                             0                       # DTB read hits
system.cpu.dtb.readMisses                           0                       # DTB read misses
system.cpu.dtb.writeHits                            0                       # DTB write hits
system.cpu.dtb.writeMisses                          0                       # DTB write misses
system.cpu.dtb.inserts                              0                       # Number of times an entry is inserted into the TLB
system.cpu.dtb.flushTlb                             0                       # Number of times complete TLB was flushed
system.cpu.dtb.flushTlbMva                          0                       # Number of times TLB was flushed by MVA
system.cpu.dtb.flushTlbMvaAsid                      0                       # Number of times TLB was flushed by MVA & ASID
system.cpu.dtb.flushTlbAsid                         0                       # Number of times TLB was flushed by ASID
system.cpu.dtb.flushedEntries                       0                       # Number of entries that have been flushed from TLB
system.cpu.dtb.alignFaults                          0                       # Number of TLB faults due to alignment restrictions
system.cpu.dtb.prefetchFaults                       0                       # Number of TLB faults due to prefetch
system.cpu.dtb.domainFaults                         0                       # Number of TLB faults due to domain restrictions
system.cpu.dtb.permsFaults                          0                       # Number of TLB faults due to permissions restrictions
system.cpu.dtb.readAccesses                         0                       # DTB read accesses
system.cpu.dtb.writeAccesses                        0                       # DTB write accesses
system.cpu.dtb.instAccesses                         0                       # ITB inst accesses
system.cpu.dtb.hits                                 0                       # Total TLB (inst and data) hits
system.cpu.dtb.misses                               0                       # Total TLB (inst and data) misses
system.cpu.dtb.accesses                             0                       # Total TLB (inst and data) accesses
system.cpu.dtb.stage2_mmu.stage2_tlb.instHits            0                       # ITB inst hits
system.cpu.dtb.stage2_mmu.stage2_tlb.instMisses            0                       # ITB inst misses
system.cpu.dtb.stage2_mmu.stage2_tlb.readHits            0                       # DTB read hits
system.cpu.dtb.stage2_mmu.stage2_tlb.readMisses            0                       # DTB read misses
system.cpu.dtb.stage2_mmu.stage2_tlb.writeHits            0                       # DTB write hits
system.cpu.dtb.stage2_mmu.stage2_tlb.writeMisses            0                       # DTB write misses
system.cpu.dtb.stage2_mmu.stage2_tlb.inserts            0                       # Number of times an entry is inserted into the TLB
system.cpu.dtb.stage2_mmu.stage2_tlb.flushTlb            0                       # Number of times complete TLB was flushed
system.cpu.dtb.stage2_mmu.stage2_tlb.flushTlbMva            0                       # Number of times TLB was flushed by MVA
system.cpu.dtb.stage2_mmu.stage2_tlb.flushTlbMvaAsid            0                       # Number of times TLB was flushed by MVA & ASID
system.cpu.dtb.stage2_mmu.stage2_tlb.flushTlbAsid            0                       # Number of times TLB was flushed by ASID
system.cpu.dtb.stage2_mmu.stage2_tlb.flushedEntries            0                       # Number of entries that have been flushed from TLB
system.cpu.dtb.stage2_mmu.stage2_tlb.alignFaults            0                       # Number of TLB faults due to alignment restrictions
system.cpu.dtb.stage2_mmu.stage2_tlb.prefetchFaults            0                       # Number of TLB faults due to prefetch
system.cpu.dtb.stage2_mmu.stage2_tlb.domainFaults            0                       # Number of TLB faults due to domain restrictions
system.cpu.dtb.stage2_mmu.stage2_tlb.permsFaults            0                       # Number of TLB faults due to permissions restrictions
system.cpu.dtb.stage2_mmu.stage2_tlb.readAccesses            0                       # DTB read accesses
system.cpu.dtb.stage2_mmu.stage2_tlb.writeAccesses            0                       # DTB write accesses
system.cpu.dtb.stage2_mmu.stage2_tlb.instAccesses            0                       # ITB inst accesses
system.cpu.dtb.stage2_mmu.stage2_tlb.hits            0                       # Total TLB (inst and data) hits
system.cpu.dtb.stage2_mmu.stage2_tlb.misses            0                       # Total TLB (inst and data) misses
system.cpu.dtb.stage2_mmu.stage2_tlb.accesses            0                       # Total TLB (inst and data) accesses
system.cpu.dtb.stage2_mmu.stage2_tlb.walker.walks            0                       # Table walker walks requested
system.cpu.dtb.stage2_mmu.stage2_tlb.walker.requestOrigin_Requested::Data            0                       # Table walker requests started/completed, data/inst
system.cpu.dtb.stage2_mmu.stage2_tlb.walker.requestOrigin_Requested::Inst            0                       # Table walker requests started/completed, data/inst
system.cpu.dtb.stage2_mmu.stage2_tlb.walker.requestOrigin_Requested::total            0                       # Table walker requests started/completed, data/inst
system.cpu.dtb.stage2_mmu.stage2_tlb.walker.requestOrigin_Completed::Data            0                       # Table walker requests started/completed, data/inst
system.cpu.dtb.stage2_mmu.stage2_tlb.walker.requestOrigin_Completed::Inst            0                       # Table walker requests started/completed, data/inst
system.cpu.dtb.stage2_mmu.stage2_tlb.walker.requestOrigin_Completed::total            0                       # Table walker requests started/completed, data/inst
system.cpu.dtb.stage2_mmu.stage2_tlb.walker.requestOrigin::total            0                       # Table walker requests started/completed, data/inst
system.cpu.dtb.stage2_mmu.stage2_tlb.walker.power_state.pwrStateResidencyTicks::UNDEFINED     39632000                       # Cumulative time (in ticks) in various power states
system.cpu.dtb.walker.walks                         0                       # Table walker walks requested
system.cpu.dtb.walker.requestOrigin_Requested::Data            0                       # Table walker requests started/completed, data/inst
system.cpu.dtb.walker.requestOrigin_Requested::Inst            0                       # Table walker requests started/completed, data/inst
system.cpu.dtb.walker.requestOrigin_Requested::total            0                       # Table walker requests started/completed, data/inst
system.cpu.dtb.walker.requestOrigin_Completed::Data            0                       # Table walker requests started/completed, data/inst
system.cpu.dtb.walker.requestOrigin_Completed::Inst            0                       # Table walker requests started/completed, data/inst
system.cpu.dtb.walker.requestOrigin_Completed::total            0                       # Table walker requests started/completed, data/inst
system.cpu.dtb.walker.requestOrigin::total            0                       # Table walker requests started/completed, data/inst
system.cpu.dtb.walker.power_state.pwrStateResidencyTicks::UNDEFINED     39632000                       # Cumulative time (in ticks) in various power states
system.cpu.fetch2.intInstructions               11764                       # Number of integer instructions successfully decoded
system.cpu.fetch2.fpInstructions                    0                       # Number of floating point instructions successfully decoded
system.cpu.fetch2.vecInstructions                   0                       # Number of SIMD instructions successfully decoded
system.cpu.fetch2.loadInstructions               3272                       # Number of memory load instructions successfully decoded
system.cpu.fetch2.storeInstructions              1614                       # Number of memory store instructions successfully decoded
system.cpu.fetch2.amoInstructions                   0                       # Number of memory atomic instructions successfully decoded
system.cpu.icache.demand_hits::.cpu.inst         4652                       # number of demand (read+write) hits
system.cpu.icache.demand_hits::total             4652                       # number of demand (read+write) hits
system.cpu.icache.overall_hits::.cpu.inst         4652                       # number of overall hits
system.cpu.icache.overall_hits::total            4652                       # number of overall hits
system.cpu.icache.demand_misses::.cpu.inst          435                       # number of demand (read+write) misses
system.cpu.icache.demand_misses::total            435                       # number of demand (read+write) misses
system.cpu.icache.overall_misses::.cpu.inst          435                       # number of overall misses
system.cpu.icache.overall_misses::total           435                       # number of overall misses
system.cpu.icache.demand_miss_latency::.cpu.inst     25200500                       # number of demand (read+write) miss cycles
system.cpu.icache.demand_miss_latency::total     25200500                       # number of demand (read+write) miss cycles
system.cpu.icache.overall_miss_latency::.cpu.inst     25200500                       # number of overall miss cycles
system.cpu.icache.overall_miss_latency::total     25200500                       # number of overall miss cycles
system.cpu.icache.demand_accesses::.cpu.inst         5087                       # number of demand (read+write) accesses
system.cpu.icache.demand_accesses::total         5087                       # number of demand (read+write) accesses
system.cpu.icache.overall_accesses::.cpu.inst         5087                       # number of overall (read+write) accesses
system.cpu.icache.overall_accesses::total         5087                       # number of overall (read+write) accesses
system.cpu.icache.demand_miss_rate::.cpu.inst     0.085512                       # miss rate for demand accesses
system.cpu.icache.demand_miss_rate::total     0.085512                       # miss rate for demand accesses
system.cpu.icache.overall_miss_rate::.cpu.inst     0.085512                       # miss rate for overall accesses
system.cpu.icache.overall_miss_rate::total     0.085512                       # miss rate for overall accesses
system.cpu.icache.demand_avg_miss_latency::.cpu.inst 57932.183908                       # average overall miss latency
system.cpu.icache.demand_avg_miss_latency::total 57932.183908                       # average overall miss latency
system.cpu.icache.overall_avg_miss_latency::.cpu.inst 57932.183908                       # average overall miss latency
system.cpu.icache.overall_avg_miss_latency::total 57932.183908                       # average overall miss latency
system.cpu.icache.blocked_cycles::no_mshrs            0                       # number of cycles access was blocked
system.cpu.icache.blocked_cycles::no_targets            0                       # number of cycles access was blocked
system.cpu.icache.blocked::no_mshrs                 0                       # number of cycles access was blocked
system.cpu.icache.blocked::no_targets               0                       # number of cycles access was blocked
system.cpu.icache.avg_blocked_cycles::no_mshrs          nan                       # average number of cycles each access was blocked
system.cpu.icache.avg_blocked_cycles::no_targets          nan                       # average number of cycles each access was blocked
system.cpu.icache.writebacks::.writebacks          108                       # number of writebacks
system.cpu.icache.writebacks::total               108                       # number of writebacks
system.cpu.icache.demand_mshr_misses::.cpu.inst          435                       # number of demand (read+write) MSHR misses
system.cpu.icache.demand_mshr_misses::total          435                       # number of demand (read+write) MSHR misses
system.cpu.icache.overall_mshr_misses::.cpu.inst          435                       # number of overall MSHR misses
system.cpu.icache.overall_mshr_misses::total          435                       # number of overall MSHR misses
system.cpu.icache.demand_mshr_miss_latency::.cpu.inst     24717250                       # number of demand (read+write) MSHR miss cycles
system.cpu.icache.demand_mshr_miss_latency::total     24717250                       # number of demand (read+write) MSHR miss cycles
system.cpu.icache.overall_mshr_miss_latency::.cpu.inst     24717250                       # number of overall MSHR miss cycles
system.cpu.icache.overall_mshr_miss_latency::total     24717250                       # number of overall MSHR miss cycles
system.cpu.icache.demand_mshr_miss_rate::.cpu.inst     0.085512                       # mshr miss rate for demand accesses
system.cpu.icache.demand_mshr_miss_rate::total     0.085512                       # mshr miss rate for demand accesses
system.cpu.icache.overall_mshr_miss_rate::.cpu.inst     0.085512                       # mshr miss rate for overall accesses
system.cpu.icache.overall_mshr_miss_rate::total     0.085512                       # mshr miss rate for overall accesses
system.cpu.icache.demand_avg_mshr_miss_latency::.cpu.inst 56821.264368                       # average overall mshr miss latency
system.cpu.icache.demand_avg_mshr_miss_latency::total 56821.264368                       # average overall mshr miss latency
system.cpu.icache.overall_avg_mshr_miss_latency::.cpu.inst 56821.264368                       # average overall mshr miss latency
system.cpu.icache.overall_avg_mshr_miss_latency::total 56821.264368                       # average overall mshr miss latency
system.cpu.icache.replacements                    108                       # number of replacements
system.cpu.icache.ReadReq_hits::.cpu.inst         4652                       # number of ReadReq hits
system.cpu.icache.ReadReq_hits::total            4652                       # number of ReadReq hits
system.cpu.icache.ReadReq_misses::.cpu.inst          435                       # number of ReadReq misses
system.cpu.icache.ReadReq_misses::total           435                       # number of ReadReq misses
system.cpu.icache.ReadReq_miss_latency::.cpu.inst     25200500                       # number of ReadReq miss cycles
system.cpu.icache.ReadReq_miss_latency::total     25200500                       # number of ReadReq miss cycles
system.cpu.icache.ReadReq_accesses::.cpu.inst         5087                       # number of ReadReq accesses(hits+misses)
system.cpu.icache.ReadReq_accesses::total         5087                       # number of ReadReq accesses(hits+misses)
system.cpu.icache.ReadReq_miss_rate::.cpu.inst     0.085512                       # miss rate for ReadReq accesses
system.cpu.icache.ReadReq_miss_rate::total     0.085512                       # miss rate for ReadReq accesses
system.cpu.icache.ReadReq_avg_miss_latency::.cpu.inst 57932.183908                       # average ReadReq miss latency
system.cpu.icache.ReadReq_avg_miss_latency::total 57932.183908                       # average ReadReq miss latency
system.cpu.icache.ReadReq_mshr_misses::.cpu.inst          435                       # number of ReadReq MSHR misses
system.cpu.icache.ReadReq_mshr_misses::total          435                       # number of ReadReq MSHR misses
system.cpu.icache.ReadReq_mshr_miss_latency::.cpu.inst     24717250                       # number of ReadReq MSHR miss cycles
system.cpu.icache.ReadReq_mshr_miss_latency::total     24717250                       # number of ReadReq MSHR miss cycles
system.cpu.icache.ReadReq_mshr_miss_rate::.cpu.inst     0.085512                       # mshr miss rate for ReadReq accesses
system.cpu.icache.ReadReq_mshr_miss_rate::total     0.085512                       # mshr miss rate for ReadReq accesses
system.cpu.icache.ReadReq_avg_mshr_miss_latency::.cpu.inst 56821.264368                       # average ReadReq mshr miss latency
system.cpu.icache.ReadReq_avg_mshr_miss_latency::total 56821.264368                       # average ReadReq mshr miss latency
system.cpu.icache.power_state.pwrStateResidencyTicks::UNDEFINED     39632000                       # Cumulative time (in ticks) in various power states
system.cpu.icache.tags.tagsinuse           188.955399                       # Cycle average of tags in use
system.cpu.icache.tags.total_refs                5087                       # Total number of references to valid blocks.
system.cpu.icache.tags.sampled_refs               435                       # Sample count of references to valid blocks.
system.cpu.icache.tags.avg_refs             11.694253                       # Average number of references to valid blocks.
system.cpu.icache.tags.warmup_cycle             80000                       # Cycle when the warmup percentage was hit.
system.cpu.icache.tags.occ_blocks::.cpu.inst   188.955399                       # Average occupied blocks per requestor
system.cpu.icache.tags.occ_percent::.cpu.inst     0.369054                       # Average percentage of cache occupancy
system.cpu.icache.tags.occ_percent::total     0.369054                       # Average percentage of cache occupancy
system.cpu.icache.tags.occ_task_id_blocks::1024          327                       # Occupied blocks per task id
system.cpu.icache.tags.age_task_id_blocks_1024::0          103                       # Occupied blocks per task id
system.cpu.icache.tags.age_task_id_blocks_1024::1          224                       # Occupied blocks per task id
system.cpu.icache.tags.occ_task_id_percent::1024     0.638672                       # Percentage of cache occupancy per task id
system.cpu.icache.tags.tag_accesses             10609                       # Number of tag accesses
system.cpu.icache.tags.data_accesses            10609                       # Number of data accesses
system.cpu.icache.tags.power_state.pwrStateResidencyTicks::UNDEFINED     39632000                       # Cumulative time (in ticks) in various power states
system.cpu.itb.instHits                             0                       # ITB inst hits
system.cpu.itb.instMisses                           0                       # ITB inst misses
system.cpu.itb.readHits                             0                       # DTB read hits
system.cpu.itb.readMisses                           0                       # DTB read misses
system.cpu.itb.writeHits                            0                       # DTB write hits
system.cpu.itb.writeMisses                          0                       # DTB write misses
system.cpu.itb.inserts                              0                       # Number of times an entry is inserted into the TLB
system.cpu.itb.flushTlb                             0                       # Number of times complete TLB was flushed
system.cpu.itb.flushTlbMva                          0                       # Number of times TLB was flushed by MVA
system.cpu.itb.flushTlbMvaAsid                      0                       # Number of times TLB was flushed by MVA & ASID
system.cpu.itb.flushTlbAsid                         0                       # Number of times TLB was flushed by ASID
system.cpu.itb.flushedEntries                       0                       # Number of entries that have been flushed from TLB
system.cpu.itb.alignFaults                          0                       # Number of TLB faults due to alignment restrictions
system.cpu.itb.prefetchFaults                       0                       # Number of TLB faults due to prefetch
system.cpu.itb.domainFaults                         0                       # Number of TLB faults due to domain restrictions
system.cpu.itb.permsFaults                          0                       # Number of TLB faults due to permissions restrictions
system.cpu.itb.readAccesses                         0                       # DTB read accesses
system.cpu.itb.writeAccesses                        0                       # DTB write accesses
system.cpu.itb.instAccesses                         0                       # ITB inst accesses
system.cpu.itb.hits                                 0                       # Total TLB (inst and data) hits
system.cpu.itb.misses                               0                       # Total TLB (inst and data) misses
system.cpu.itb.accesses                             0                       # Total TLB (inst and data) accesses
system.cpu.itb.stage2_mmu.stage2_tlb.instHits            0                       # ITB inst hits
system.cpu.itb.stage2_mmu.stage2_tlb.instMisses            0                       # ITB inst misses
system.cpu.itb.stage2_mmu.stage2_tlb.readHits            0                       # DTB read hits
system.cpu.itb.stage2_mmu.stage2_tlb.readMisses            0                       # DTB read misses
system.cpu.itb.stage2_mmu.stage2_tlb.writeHits            0                       # DTB write hits
system.cpu.itb.stage2_mmu.stage2_tlb.writeMisses            0                       # DTB write misses
system.cpu.itb.stage2_mmu.stage2_tlb.inserts            0                       # Number of times an entry is inserted into the TLB
system.cpu.itb.stage2_mmu.stage2_tlb.flushTlb            0                       # Number of times complete TLB was flushed
system.cpu.itb.stage2_mmu.stage2_tlb.flushTlbMva            0                       # Number of times TLB was flushed by MVA
system.cpu.itb.stage2_mmu.stage2_tlb.flushTlbMvaAsid            0                       # Number of times TLB was flushed by MVA & ASID
system.cpu.itb.stage2_mmu.stage2_tlb.flushTlbAsid            0                       # Number of times TLB was flushed by ASID
system.cpu.itb.stage2_mmu.stage2_tlb.flushedEntries            0                       # Number of entries that have been flushed from TLB
system.cpu.itb.stage2_mmu.stage2_tlb.alignFaults            0                       # Number of TLB faults due to alignment restrictions
system.cpu.itb.stage2_mmu.stage2_tlb.prefetchFaults            0                       # Number of TLB faults due to prefetch
system.cpu.itb.stage2_mmu.stage2_tlb.domainFaults            0                       # Number of TLB faults due to domain restrictions
system.cpu.itb.stage2_mmu.stage2_tlb.permsFaults            0                       # Number of TLB faults due to permissions restrictions
system.cpu.itb.stage2_mmu.stage2_tlb.readAccesses            0                       # DTB read accesses
system.cpu.itb.stage2_mmu.stage2_tlb.writeAccesses            0                       # DTB write accesses
system.cpu.itb.stage2_mmu.stage2_tlb.instAccesses            0                       # ITB inst accesses
system.cpu.itb.stage2_mmu.stage2_tlb.hits            0                       # Total TLB (inst and data) hits
system.cpu.itb.stage2_mmu.stage2_tlb.misses            0                       # Total TLB (inst and data) misses
system.cpu.itb.stage2_mmu.stage2_tlb.accesses            0                       # Total TLB (inst and data) accesses
system.cpu.itb.stage2_mmu.stage2_tlb.walker.walks            0                       # Table walker walks requested
system.cpu.itb.stage2_mmu.stage2_tlb.walker.requestOrigin_Requested::Data            0                       # Table walker requests started/completed, data/inst
system.cpu.itb.stage2_mmu.stage2_tlb.walker.requestOrigin_Requested::Inst            0                       # Table walker requests started/completed, data/inst
system.cpu.itb.stage2_mmu.stage2_tlb.walker.requestOrigin_Requested::total            0                       # Table walker requests started/completed, data/inst
system.cpu.itb.stage2_mmu.stage2_tlb.walker.requestOrigin_Completed::Data            0                       # Table walker requests started/completed, data/inst
system.cpu.itb.stage2_mmu.stage2_tlb.walker.requestOrigin_Completed::Inst            0                       # Table walker requests started/completed, data/inst
system.cpu.itb.stage2_mmu.stage2_tlb.walker.requestOrigin_Completed::total            0                       # Table walker requests started/completed, data/inst
system.cpu.itb.stage2_mmu.stage2_tlb.walker.requestOrigin::total            0                       # Table walker requests started/completed, data/inst
system.cpu.itb.stage2_mmu.stage2_tlb.walker.power_state.pwrStateResidencyTicks::UNDEFINED     39632000                       # Cumulative time (in ticks) in various power states
system.cpu.itb.walker.walks                         0                       # Table walker walks requested
system.cpu.itb.walker.requestOrigin_Requested::Data            0                       # Table walker requests started/completed, data/inst
system.cpu.itb.walker.requestOrigin_Requested::Inst            0                       # Table walker requests started/completed, data/inst
system.cpu.itb.walker.requestOrigin_Requested::total            0                       # Table walker requests started/completed, data/inst
system.cpu.itb.walker.requestOrigin_Completed::Data            0                       # Table walker requests started/completed, data/inst
system.cpu.itb.walker.requestOrigin_Completed::Inst            0                       # Table walker requests started/completed, data/inst
system.cpu.itb.walker.requestOrigin_Completed::total            0                       # Table walker requests started/completed, data/inst
system.cpu.itb.walker.requestOrigin::total            0                       # Table walker requests started/completed, data/inst
system.cpu.itb.walker.power_state.pwrStateResidencyTicks::UNDEFINED     39632000                       # Cumulative time (in ticks) in various power states
system.cpu.power_state.pwrStateResidencyTicks::ON     39632000                       # Cumulative time (in ticks) in various power states
system.cpu.thread_0.numInsts                    13132                       # Number of Instructions committed
system.cpu.thread_0.numOps                      15049                       # Number of Ops committed
system.cpu.thread_0.numMemRefs                      0                       # Number of Memory References
system.cpu_clk_domain.clock                       500                       # Clock period in ticks
system.cpu_voltage_domain.voltage                   1                       # Voltage in Volts
system.mem_ctrls.avgPriority_.writebacks::samples        96.00                       # Average QoS priority value for accepted requests
system.mem_ctrls.avgPriority_.cpu.inst::samples       407.00                       # Average QoS priority value for accepted requests
system.mem_ctrls.avgPriority_.cpu.data::samples       180.00                       # Average QoS priority value for accepted requests
system.mem_ctrls.priorityMinLatency      0.000000017492                       # per QoS priority minimum request to response latency (s)
system.mem_ctrls.priorityMaxLatency      0.000040721652                       # per QoS priority maximum request to response latency (s)
system.mem_ctrls.numReadWriteTurnArounds            2                       # Number of turnarounds from READ to WRITE
system.mem_ctrls.numWriteReadTurnArounds            2                       # Number of turnarounds from WRITE to READ
system.mem_ctrls.numStayReadState                1283                       # Number of times bus staying in READ state
system.mem_ctrls.numStayWriteState                 30                       # Number of times bus staying in WRITE state
system.mem_ctrls.readReqs                         616                       # Number of read requests accepted
system.mem_ctrls.writeReqs                        104                       # Number of write requests accepted
system.mem_ctrls.readBursts                       616                       # Number of controller read bursts, including those serviced by the write queue
system.mem_ctrls.writeBursts                      104                       # Number of controller write bursts, including those merged in the write queue
system.mem_ctrls.servicedByWrQ                     29                       # Number of controller read bursts serviced by the write queue
system.mem_ctrls.mergedWrBursts                     8                       # Number of controller write bursts merged with an existing one
system.mem_ctrls.neitherReadNorWriteReqs            0                       # Number of requests that are neither read nor write
system.mem_ctrls.avgRdQLen                       1.15                       # Average read queue length when enqueuing
system.mem_ctrls.avgWrQLen                      25.33                       # Average write queue length when enqueuing
system.mem_ctrls.numRdRetry                         0                       # Number of times read queue was full causing retry
system.mem_ctrls.numWrRetry                         0                       # Number of times write queue was full causing retry
system.mem_ctrls.readPktSize::0                     0                       # Read request sizes (log2)
system.mem_ctrls.readPktSize::1                     0                       # Read request sizes (log2)
system.mem_ctrls.readPktSize::2                     0                       # Read request sizes (log2)
system.mem_ctrls.readPktSize::3                     0                       # Read request sizes (log2)
system.mem_ctrls.readPktSize::4                     0                       # Read request sizes (log2)
system.mem_ctrls.readPktSize::5                     0                       # Read request sizes (log2)
system.mem_ctrls.readPktSize::6                   616                       # Read request sizes (log2)
system.mem_ctrls.writePktSize::0                    0                       # Write request sizes (log2)
system.mem_ctrls.writePktSize::1                    0                       # Write request sizes (log2)
system.mem_ctrls.writePktSize::2                    0                       # Write request sizes (log2)
system.mem_ctrls.writePktSize::3                    0                       # Write request sizes (log2)
system.mem_ctrls.writePktSize::4                    0                       # Write request sizes (log2)
system.mem_ctrls.writePktSize::5                    0                       # Write request sizes (log2)
system.mem_ctrls.writePktSize::6                  104                       # Write request sizes (log2)
system.mem_ctrls.rdQLenPdf::0                     498                       # What read queue length does an incoming req see
system.mem_ctrls.rdQLenPdf::1                      85                       # What read queue length does an incoming req see
system.mem_ctrls.rdQLenPdf::2                       4                       # What read queue length does an incoming req see
system.mem_ctrls.rdQLenPdf::3                       0                       # What read queue length does an incoming req see
system.mem_ctrls.rdQLenPdf::4                       0                       # What read queue length does an incoming req see
system.mem_ctrls.rdQLenPdf::5                       0                       # What read queue length does an incoming req see
system.mem_ctrls.rdQLenPdf::6                       0                       # What read queue length does an incoming req see
system.mem_ctrls.rdQLenPdf::7                       0                       # What read queue length does an incoming req see
system.mem_ctrls.rdQLenPdf::8                       0                       # What read queue length does an incoming req see
system.mem_ctrls.rdQLenPdf::9                       0                       # What read queue length does an incoming req see
system.mem_ctrls.rdQLenPdf::10                      0                       # What read queue length does an incoming req see
system.mem_ctrls.rdQLenPdf::11                      0                       # What read queue length does an incoming req see
system.mem_ctrls.rdQLenPdf::12                      0                       # What read queue length does an incoming req see
system.mem_ctrls.rdQLenPdf::13                      0                       # What read queue length does an incoming req see
system.mem_ctrls.rdQLenPdf::14                      0                       # What read queue length does an incoming req see
system.mem_ctrls.rdQLenPdf::15                      0                       # What read queue length does an incoming req see
system.mem_ctrls.rdQLenPdf::16                      0                       # What read queue length does an incoming req see
system.mem_ctrls.rdQLenPdf::17                      0                       # What read queue length does an incoming req see
system.mem_ctrls.rdQLenPdf::18                      0                       # What read queue length does an incoming req see
system.mem_ctrls.rdQLenPdf::19                      0                       # What read queue length does an incoming req see
system.mem_ctrls.rdQLenPdf::20                      0                       # What read queue length does an incoming req see
system.mem_ctrls.rdQLenPdf::21                      0                       # What read queue length does an incoming req see
system.mem_ctrls.rdQLenPdf::22                      0                       # What read queue length does an incoming req see
system.mem_ctrls.rdQLenPdf::23                      0                       # What read queue length does an incoming req see
system.mem_ctrls.rdQLenPdf::24                      0                       # What read queue length does an incoming req see
system.mem_ctrls.rdQLenPdf::25                      0                       # What read queue length does an incoming req see
system.mem_ctrls.rdQLenPdf::26                      0                       # What read queue length does an incoming req see
system.mem_ctrls.rdQLenPdf::27                      0                       # What read queue length does an incoming req see
system.mem_ctrls.rdQLenPdf::28                      0                       # What read queue length does an incoming req see
system.mem_ctrls.rdQLenPdf::29                      0                       # What read queue length does an incoming req see
system.mem_ctrls.rdQLenPdf::30                      0                       # What read queue length does an incoming req see
system.mem_ctrls.rdQLenPdf::31                      0                       # What read queue length does an incoming req see
system.mem_ctrls.rdQLenPdf::32                      0                       # What read queue length does an incoming req see
system.mem_ctrls.rdQLenPdf::33                      0                       # What read queue length does an incoming req see
system.mem_ctrls.rdQLenPdf::34                      0                       # What read queue length does an incoming req see
system.mem_ctrls.rdQLenPdf::35                      0                       # What read queue length does an incoming req see
system.mem_ctrls.rdQLenPdf::36                      0                       # What read queue length does an incoming req see
system.mem_ctrls.rdQLenPdf::37                      0                       # What read queue length does an incoming req see
system.mem_ctrls.rdQLenPdf::38                      0                       # What read queue length does an incoming req see
system.mem_ctrls.rdQLenPdf::39                      0                       # What read queue length does an incoming req see
system.mem_ctrls.rdQLenPdf::40                      0                       # What read queue length does an incoming req see
system.mem_ctrls.rdQLenPdf::41                      0                       # What read queue length does an incoming req see
system.mem_ctrls.rdQLenPdf::42                      0                       # What read queue length does an incoming req see
system.mem_ctrls.rdQLenPdf::43                      0                       # What read queue length does an incoming req see
system.mem_ctrls.rdQLenPdf::44                      0                       # What read queue length does an incoming req see
system.mem_ctrls.rdQLenPdf::45                      0                       # What read queue length does an incoming req see
system.mem_ctrls.rdQLenPdf::46                      0                       # What read queue length does an incoming req see
system.mem_ctrls.rdQLenPdf::47                      0                       # What read queue length does an incoming req see
system.mem_ctrls.rdQLenPdf::48                      0                       # What read queue length does an incoming req see
system.mem_ctrls.rdQLenPdf::49                      0                       # What read queue length does an incoming req see
system.mem_ctrls.rdQLenPdf::50                      0                       # What read queue length does an incoming req see
system.mem_ctrls.rdQLenPdf::51                      0                       # What read queue length does an incoming req see
system.mem_ctrls.rdQLenPdf::52                      0                       # What read queue length does an incoming req see
system.mem_ctrls.rdQLenPdf::53                      0                       # What read queue length does an incoming req see
system.mem_ctrls.rdQLenPdf::54                      0                       # What read queue length does an incoming req see
system.mem_ctrls.rdQLenPdf::55                      0                       # What read queue length does an incoming req see
system.mem_ctrls.rdQLenPdf::56                      0                       # What read queue length does an incoming req see
system.mem_ctrls.rdQLenPdf::57                      0                       # What read queue length does an incoming req see
system.mem_ctrls.rdQLenPdf::58                      0                       # What read queue length does an incoming req see
system.mem_ctrls.rdQLenPdf::59                      0                       # What read queue length does an incoming req see
system.mem_ctrls.rdQLenPdf::60                      0                       # What read queue length does an incoming req see
system.mem_ctrls.rdQLenPdf::61                      0                       # What read queue length does an incoming req see
system.mem_ctrls.rdQLenPdf::62                      0                       # What read queue length does an incoming req see
system.mem_ctrls.rdQLenPdf::63                      0                       # What read queue length does an incoming req see
system.mem_ctrls.wrQLenPdf::0                       1                       # What write queue length does an incoming req see
system.mem_ctrls.wrQLenPdf::1                       1                       # What write queue length does an incoming req see
system.mem_ctrls.wrQLenPdf::2                       1                       # What write queue length does an incoming req see
system.mem_ctrls.wrQLenPdf::3                       1                       # What write queue length does an incoming req see
system.mem_ctrls.wrQLenPdf::4                       1                       # What write queue length does an incoming req see
system.mem_ctrls.wrQLenPdf::5                       1                       # What write queue length does an incoming req see
system.mem_ctrls.wrQLenPdf::6                       1                       # What write queue length does an incoming req see
system.mem_ctrls.wrQLenPdf::7                       1                       # What write queue length does an incoming req see
system.mem_ctrls.wrQLenPdf::8                       1                       # What write queue length does an incoming req see
system.mem_ctrls.wrQLenPdf::9                       1                       # What write queue length does an incoming req see
system.mem_ctrls.wrQLenPdf::10                      1                       # What write queue length does an incoming req see
system.mem_ctrls.wrQLenPdf::11                      1                       # What write queue length does an incoming req see
system.mem_ctrls.wrQLenPdf::12                      1                       # What write queue length does an incoming req see
system.mem_ctrls.wrQLenPdf::13                      1                       # What write queue length does an incoming req see
system.mem_ctrls.wrQLenPdf::14                      1                       # What write queue length does an incoming req see
system.mem_ctrls.wrQLenPdf::15                      1                       # What write queue length does an incoming req see
system.mem_ctrls.wrQLenPdf::16                      1                       # What write queue length does an incoming req see
system.mem_ctrls.wrQLenPdf::17                      1                       # What write queue length does an incoming req see
system.mem_ctrls.wrQLenPdf::18                      1                       # What write queue length does an incoming req see
system.mem_ctrls.wrQLenPdf::19                      1                       # What write queue length does an incoming req see
system.mem_ctrls.wrQLenPdf::20                      1                       # What write queue length does an incoming req see
system.mem_ctrls.wrQLenPdf::21                      1                       # What write queue length does an incoming req see
system.mem_ctrls.wrQLenPdf::22                      1                       # What write queue length does an incoming req see
system.mem_ctrls.wrQLenPdf::23                      1                       # What write queue length does an incoming req see
system.mem_ctrls.wrQLenPdf::24                      1                       # What write queue length does an incoming req see
system.mem_ctrls.wrQLenPdf::25                      1                       # What write queue length does an incoming req see
system.mem_ctrls.wrQLenPdf::26                      1                       # What write queue length does an incoming req see
system.mem_ctrls.wrQLenPdf::27                      1                       # What write queue length does an incoming req see
system.mem_ctrls.wrQLenPdf::28                      1                       # What write queue length does an incoming req see
system.mem_ctrls.wrQLenPdf::29                      1                       # What write queue length does an incoming req see
system.mem_ctrls.wrQLenPdf::30                      1                       # What write queue length does an incoming req see
system.mem_ctrls.wrQLenPdf::31                      1                       # What write queue length does an incoming req see
system.mem_ctrls.wrQLenPdf::32                      1                       # What write queue length does an incoming req see
system.mem_ctrls.wrQLenPdf::33                      1                       # What write queue length does an incoming req see
system.mem_ctrls.wrQLenPdf::34                      1                       # What write queue length does an incoming req see
system.mem_ctrls.wrQLenPdf::35                      1                       # What write queue length does an incoming req see
system.mem_ctrls.wrQLenPdf::36                      1                       # What write queue length does an incoming req see
system.mem_ctrls.wrQLenPdf::37                      1                       # What write queue length does an incoming req see
system.mem_ctrls.wrQLenPdf::38                      1                       # What write queue length does an incoming req see
system.mem_ctrls.wrQLenPdf::39                      1                       # What write queue length does an incoming req see
system.mem_ctrls.wrQLenPdf::40                      1                       # What write queue length does an incoming req see
system.mem_ctrls.wrQLenPdf::41                      1                       # What write queue length does an incoming req see
system.mem_ctrls.wrQLenPdf::42                      1                       # What write queue length does an incoming req see
system.mem_ctrls.wrQLenPdf::43                      1                       # What write queue length does an incoming req see
system.mem_ctrls.wrQLenPdf::44                      1                       # What write queue length does an incoming req see
system.mem_ctrls.wrQLenPdf::45                      1                       # What write queue length does an incoming req see
system.mem_ctrls.wrQLenPdf::46                      1                       # What write queue length does an incoming req see
system.mem_ctrls.wrQLenPdf::47                      1                       # What write queue length does an incoming req see
system.mem_ctrls.wrQLenPdf::48                      1                       # What write queue length does an incoming req see
system.mem_ctrls.wrQLenPdf::49                      3                       # What write queue length does an incoming req see
system.mem_ctrls.wrQLenPdf::50                      3                       # What write queue length does an incoming req see
system.mem_ctrls.wrQLenPdf::51                      3                       # What write queue length does an incoming req see
system.mem_ctrls.wrQLenPdf::52                      3                       # What write queue length does an incoming req see
system.mem_ctrls.wrQLenPdf::53                      3                       # What write queue length does an incoming req see
system.mem_ctrls.wrQLenPdf::54                      3                       # What write queue length does an incoming req see
system.mem_ctrls.wrQLenPdf::55                      3                       # What write queue length does an incoming req see
system.mem_ctrls.wrQLenPdf::56                      3                       # What write queue length does an incoming req see
system.mem_ctrls.wrQLenPdf::57                      3                       # What write queue length does an incoming req see
system.mem_ctrls.wrQLenPdf::58                      3                       # What write queue length does an incoming req see
system.mem_ctrls.wrQLenPdf::59                      3                       # What write queue length does an incoming req see
system.mem_ctrls.wrQLenPdf::60                      3                       # What write queue length does an incoming req see
system.mem_ctrls.wrQLenPdf::61                      3                       # What write queue length does an incoming req see
system.mem_ctrls.wrQLenPdf::62                      3                       # What write queue length does an incoming req see
system.mem_ctrls.wrQLenPdf::63                      3                       # What write queue length does an incoming req see
system.mem_ctrls.wrQLenPdf::64                      2                       # What write queue length does an incoming req see
system.mem_ctrls.wrQLenPdf::65                      0                       # What write queue length does an incoming req see
system.mem_ctrls.wrQLenPdf::66                      0                       # What write queue length does an incoming req see
system.mem_ctrls.wrQLenPdf::67                      0                       # What write queue length does an incoming req see
system.mem_ctrls.wrQLenPdf::68                      0                       # What write queue length does an incoming req see
system.mem_ctrls.wrQLenPdf::69                      0                       # What write queue length does an incoming req see
system.mem_ctrls.wrQLenPdf::70                      0                       # What write queue length does an incoming req see
system.mem_ctrls.wrQLenPdf::71                      0                       # What write queue length does an incoming req see
system.mem_ctrls.wrQLenPdf::72                      0                       # What write queue length does an incoming req see
system.mem_ctrls.wrQLenPdf::73                      0                       # What write queue length does an incoming req see
system.mem_ctrls.wrQLenPdf::74                      0                       # What write queue length does an incoming req see
system.mem_ctrls.wrQLenPdf::75                      0                       # What write queue length does an incoming req see
system.mem_ctrls.wrQLenPdf::76                      0                       # What write queue length does an incoming req see
system.mem_ctrls.wrQLenPdf::77                      0                       # What write queue length does an incoming req see
system.mem_ctrls.wrQLenPdf::78                      0                       # What write queue length does an incoming req see
system.mem_ctrls.wrQLenPdf::79                      0                       # What write queue length does an incoming req see
system.mem_ctrls.wrQLenPdf::80                      0                       # What write queue length does an incoming req see
system.mem_ctrls.wrQLenPdf::81                      0                       # What write queue length does an incoming req see
system.mem_ctrls.wrQLenPdf::82                      0                       # What write queue length does an incoming req see
system.mem_ctrls.wrQLenPdf::83                      0                       # What write queue length does an incoming req see
system.mem_ctrls.wrQLenPdf::84                      0                       # What write queue length does an incoming req see
system.mem_ctrls.wrQLenPdf::85                      0                       # What write queue length does an incoming req see
system.mem_ctrls.wrQLenPdf::86                      0                       # What write queue length does an incoming req see
system.mem_ctrls.wrQLenPdf::87                      0                       # What write queue length does an incoming req see
system.mem_ctrls.wrQLenPdf::88                      0                       # What write queue length does an incoming req see
system.mem_ctrls.wrQLenPdf::89                      0                       # What write queue length does an incoming req see
system.mem_ctrls.wrQLenPdf::90                      0                       # What write queue length does an incoming req see
system.mem_ctrls.wrQLenPdf::91                      0                       # What write queue length does an incoming req see
system.mem_ctrls.wrQLenPdf::92                      0                       # What write queue length does an incoming req see
system.mem_ctrls.wrQLenPdf::93                      0                       # What write queue length does an incoming req see
system.mem_ctrls.wrQLenPdf::94                      0                       # What write queue length does an incoming req see
system.mem_ctrls.wrQLenPdf::95                      0                       # What write queue length does an incoming req see
system.mem_ctrls.wrQLenPdf::96                      0                       # What write queue length does an incoming req see
system.mem_ctrls.wrQLenPdf::97                      0                       # What write queue length does an incoming req see
system.mem_ctrls.wrQLenPdf::98                      0                       # What write queue length does an incoming req see
system.mem_ctrls.wrQLenPdf::99                      0                       # What write queue length does an incoming req see
system.mem_ctrls.wrQLenPdf::100                     0                       # What write queue length does an incoming req see
system.mem_ctrls.wrQLenPdf::101                     0                       # What write queue length does an incoming req see
system.mem_ctrls.wrQLenPdf::102                     0                       # What write queue length does an incoming req see
system.mem_ctrls.wrQLenPdf::103                     0                       # What write queue length does an incoming req see
system.mem_ctrls.wrQLenPdf::104                     0                       # What write queue length does an incoming req see
system.mem_ctrls.wrQLenPdf::105                     0                       # What write queue length does an incoming req see
system.mem_ctrls.wrQLenPdf::106                     0                       # What write queue length does an incoming req see
system.mem_ctrls.wrQLenPdf::107                     0                       # What write queue length does an incoming req see
[...]
system.mem_ctrls.dram.bw_total::.writebacks      1614857                       # Total bandwidth to/from this memory (bytes/s)
system.mem_ctrls.dram.bw_total::.cpu.inst    702462656                       # Total bandwidth to/from this memory (bytes/s)
system.mem_ctrls.dram.bw_total::.cpu.data    292289059                       # Total bandwidth to/from this memory (bytes/s)
system.mem_ctrls.dram.bw_total::total       996366572                       # Total bandwidth to/from this memory (bytes/s)
system.mem_ctrls.dram.readBursts                  587                       # Number of DRAM read bursts
system.mem_ctrls.dram.writeBursts                  32                       # Number of DRAM write bursts
system.mem_ctrls.dram.perBankRdBursts::0           46                       # Per bank write bursts
system.mem_ctrls.dram.perBankRdBursts::1            2                       # Per bank write bursts
system.mem_ctrls.dram.perBankRdBursts::2           23                       # Per bank write bursts
system.mem_ctrls.dram.perBankRdBursts::3           45                       # Per bank write bursts
system.mem_ctrls.dram.perBankRdBursts::4            9                       # Per bank write bursts
system.mem_ctrls.dram.perBankRdBursts::5           24                       # Per bank write bursts
system.mem_ctrls.dram.perBankRdBursts::6           49                       # Per bank write bursts
system.mem_ctrls.dram.perBankRdBursts::7           44                       # Per bank write bursts
system.mem_ctrls.dram.perBankRdBursts::8           50                       # Per bank write bursts
system.mem_ctrls.dram.perBankRdBursts::9           77                       # Per bank write bursts
system.mem_ctrls.dram.perBankRdBursts::10           37                       # Per bank write bursts
system.mem_ctrls.dram.perBankRdBursts::11           70                       # Per bank write bursts
system.mem_ctrls.dram.perBankRdBursts::12           11                       # Per bank write bursts
system.mem_ctrls.dram.perBankRdBursts::13            0                       # Per bank write bursts
system.mem_ctrls.dram.perBankRdBursts::14            0                       # Per bank write bursts
system.mem_ctrls.dram.perBankRdBursts::15            0                       # Per bank write bursts
system.mem_ctrls.dram.perBankRdBursts::16           12                       # Per bank write bursts
system.mem_ctrls.dram.perBankRdBursts::17            0                       # Per bank write bursts
system.mem_ctrls.dram.perBankRdBursts::18            0                       # Per bank write bursts
system.mem_ctrls.dram.perBankRdBursts::19            0                       # Per bank write bursts
system.mem_ctrls.dram.perBankRdBursts::20           12                       # Per bank write bursts
system.mem_ctrls.dram.perBankRdBursts::21            5                       # Per bank write bursts
system.mem_ctrls.dram.perBankRdBursts::22            7                       # Per bank write bursts
system.mem_ctrls.dram.perBankRdBursts::23            0                       # Per bank write bursts
system.mem_ctrls.dram.perBankRdBursts::24           27                       # Per bank write bursts
system.mem_ctrls.dram.perBankRdBursts::25            5                       # Per bank write bursts
system.mem_ctrls.dram.perBankRdBursts::26            2                       # Per bank write bursts
system.mem_ctrls.dram.perBankRdBursts::27            6                       # Per bank write bursts
system.mem_ctrls.dram.perBankRdBursts::28            9                       # Per bank write bursts
system.mem_ctrls.dram.perBankRdBursts::29            7                       # Per bank write bursts
system.mem_ctrls.dram.perBankRdBursts::30            8                       # Per bank write bursts
system.mem_ctrls.dram.perBankRdBursts::31            0                       # Per bank write bursts
system.mem_ctrls.dram.perBankWrBursts::0           13                       # Per bank write bursts
system.mem_ctrls.dram.perBankWrBursts::1            0                       # Per bank write bursts
system.mem_ctrls.dram.perBankWrBursts::2            7                       # Per bank write bursts
system.mem_ctrls.dram.perBankWrBursts::3            2                       # Per bank write bursts
system.mem_ctrls.dram.perBankWrBursts::4            0                       # Per bank write bursts
system.mem_ctrls.dram.perBankWrBursts::5            0                       # Per bank write bursts
system.mem_ctrls.dram.perBankWrBursts::6            0                       # Per bank write bursts
system.mem_ctrls.dram.perBankWrBursts::7            0                       # Per bank write bursts
system.mem_ctrls.dram.perBankWrBursts::8            0                       # Per bank write bursts
system.mem_ctrls.dram.perBankWrBursts::9            6                       # Per bank write bursts
system.mem_ctrls.dram.perBankWrBursts::10            0                       # Per bank write bursts
system.mem_ctrls.dram.perBankWrBursts::11            3                       # Per bank write bursts
system.mem_ctrls.dram.perBankWrBursts::12            1                       # Per bank write bursts
system.mem_ctrls.dram.perBankWrBursts::13            0                       # Per bank write bursts
system.mem_ctrls.dram.perBankWrBursts::14            0                       # Per bank write bursts
system.mem_ctrls.dram.perBankWrBursts::15            0                       # Per bank write bursts
system.mem_ctrls.dram.perBankWrBursts::16            0                       # Per bank write bursts
system.mem_ctrls.dram.perBankWrBursts::17            0                       # Per bank write bursts
system.mem_ctrls.dram.perBankWrBursts::18            0                       # Per bank write bursts
system.mem_ctrls.dram.perBankWrBursts::19            0                       # Per bank write bursts
system.mem_ctrls.dram.perBankWrBursts::20            0                       # Per bank write bursts
system.mem_ctrls.dram.perBankWrBursts::21            0                       # Per bank write bursts
system.mem_ctrls.dram.perBankWrBursts::22            0                       # Per bank write bursts
system.mem_ctrls.dram.perBankWrBursts::23            0                       # Per bank write bursts
system.mem_ctrls.dram.perBankWrBursts::24            0                       # Per bank write bursts
system.mem_ctrls.dram.perBankWrBursts::25            0                       # Per bank write bursts
system.mem_ctrls.dram.perBankWrBursts::26            0                       # Per bank write bursts
system.mem_ctrls.dram.perBankWrBursts::27            0                       # Per bank write bursts
system.mem_ctrls.dram.perBankWrBursts::28            0                       # Per bank write bursts
system.mem_ctrls.dram.perBankWrBursts::29            0                       # Per bank write bursts
system.mem_ctrls.dram.perBankWrBursts::30            0                       # Per bank write bursts
system.mem_ctrls.dram.perBankWrBursts::31            0                       # Per bank write bursts
system.mem_ctrls.dram.totQLat                 4522396                       # Total ticks spent queuing
system.mem_ctrls.dram.totBusLat               1955884                       # Total ticks spent in databus transfers
system.mem_ctrls.dram.totMemAccLat           14790200                       # Total ticks spent from burst creation until serviced by the DRAM
system.mem_ctrls.dram.avgQLat                 7704.25                       # Average queueing delay per DRAM burst
system.mem_ctrls.dram.avgBusLat               3332.00                       # Average bus latency per DRAM burst
system.mem_ctrls.dram.avgMemAccLat           25196.25                       # Average memory access latency per DRAM burst
system.mem_ctrls.dram.readRowHits                 477                       # Number of row buffer hits during reads
system.mem_ctrls.dram.writeRowHits                 27                       # Number of row buffer hits during writes
system.mem_ctrls.dram.readRowHitRate            81.26                       # Row buffer hit rate for reads
system.mem_ctrls.dram.writeRowHitRate           84.38                       # Row buffer hit rate for writes
system.mem_ctrls.dram.bytesPerActivate::samples          113                       # Bytes accessed per row activation
system.mem_ctrls.dram.bytesPerActivate::mean   348.318584                       # Bytes accessed per row activation
system.mem_ctrls.dram.bytesPerActivate::gmean   244.418268                       # Bytes accessed per row activation
system.mem_ctrls.dram.bytesPerActivate::stdev   302.122086                       # Bytes accessed per row activation
system.mem_ctrls.dram.bytesPerActivate::0-127           18     15.93%     15.93% # Bytes accessed per row activation
system.mem_ctrls.dram.bytesPerActivate::128-255           35     30.97%     46.90% # Bytes accessed per row activation
system.mem_ctrls.dram.bytesPerActivate::256-383           23     20.35%     67.26% # Bytes accessed per row activation
system.mem_ctrls.dram.bytesPerActivate::384-511           12     10.62%     77.88% # Bytes accessed per row activation
system.mem_ctrls.dram.bytesPerActivate::512-639            7      6.19%     84.07% # Bytes accessed per row activation
system.mem_ctrls.dram.bytesPerActivate::640-767            2      1.77%     85.84% # Bytes accessed per row activation
system.mem_ctrls.dram.bytesPerActivate::768-895            1      0.88%     86.73% # Bytes accessed per row activation
system.mem_ctrls.dram.bytesPerActivate::896-1023            1      0.88%     87.61% # Bytes accessed per row activation
system.mem_ctrls.dram.bytesPerActivate::1024-1151           14     12.39%    100.00% # Bytes accessed per row activation
system.mem_ctrls.dram.bytesPerActivate::total          113                       # Bytes accessed per row activation
system.mem_ctrls.dram.bytesRead                 37568                       # Total number of bytes read from DRAM
system.mem_ctrls.dram.bytesWritten               2048                       # Total number of bytes written to DRAM
system.mem_ctrls.dram.avgRdBW              947.920872                       # Average DRAM read bandwidth in MiBytes/s
system.mem_ctrls.dram.avgWrBW               51.675414                       # Average DRAM write bandwidth in MiBytes/s
system.mem_ctrls.dram.peakBW                 19207.00                       # Theoretical peak bandwidth in MiByte/s
system.mem_ctrls.dram.busUtil                    5.20                       # Data bus utilization in percentage
system.mem_ctrls.dram.busUtilRead                4.94                       # Data bus utilization in percentage for reads
system.mem_ctrls.dram.busUtilWrite               0.27                       # Data bus utilization in percentage for writes
system.mem_ctrls.dram.pageHitRate               81.42                       # Row buffer hit rate, read and write combined
system.mem_ctrls.dram.power_state.pwrStateResidencyTicks::UNDEFINED     39632000                       # Cumulative time (in ticks) in various power states
system.mem_ctrls.dram.rank0.actEnergy    280687.680000                       # Energy for activate commands per rank (pJ)
system.mem_ctrls.dram.rank0.preEnergy    364877.990400                       # Energy for precharge commands per rank (pJ)
system.mem_ctrls.dram.rank0.readEnergy   2048476.281600                       # Energy for read commands per rank (pJ)
system.mem_ctrls.dram.rank0.writeEnergy  120271.872000                       # Energy for write commands per rank (pJ)
system.mem_ctrls.dram.rank0.refreshEnergy 6926888.136000                       # Energy for refresh commands per rank (pJ)
system.mem_ctrls.dram.rank0.actBackEnergy 33552853.488000                       # Energy for active background per rank (pJ)
system.mem_ctrls.dram.rank0.preBackEnergy 91355.443200                       # Energy for precharge background per rank (pJ)
system.mem_ctrls.dram.rank0.actPowerDownEnergy            0                       # Energy for active power-down per rank (pJ)
system.mem_ctrls.dram.rank0.prePowerDownEnergy            0                       # Energy for precharge power-down per rank (pJ)
system.mem_ctrls.dram.rank0.selfRefreshEnergy            0                       # Energy for self refresh per rank (pJ)
system.mem_ctrls.dram.rank0.totalEnergy  43385410.891200                       # Total energy per rank (pJ)
system.mem_ctrls.dram.rank0.averagePower  1094.706573                       # Core power per rank (mW)
system.mem_ctrls.dram.rank0.totalIdleTime            0                       # Total Idle time Per DRAM Rank
system.mem_ctrls.dram.rank0.pwrStateTime::IDLE         1500                       # Time in different power states
system.mem_ctrls.dram.rank0.pwrStateTime::REF      1750000                       # Time in different power states
system.mem_ctrls.dram.rank0.pwrStateTime::SREF            0                       # Time in different power states
system.mem_ctrls.dram.rank0.pwrStateTime::PRE_PDN            0                       # Time in different power states
system.mem_ctrls.dram.rank0.pwrStateTime::ACT     37880500                       # Time in different power states
system.mem_ctrls.dram.rank0.pwrStateTime::ACT_PDN            0                       # Time in different power states
system.mem_ctrls.dram.rank1.actEnergy    77968.800000                       # Energy for activate commands per rank (pJ)
system.mem_ctrls.dram.rank1.preEnergy    103658.520000                       # Energy for precharge commands per rank (pJ)
system.mem_ctrls.dram.rank1.readEnergy   420631.680000                       # Energy for read commands per rank (pJ)
system.mem_ctrls.dram.rank1.writeEnergy             0                       # Energy for write commands per rank (pJ)
system.mem_ctrls.dram.rank1.refreshEnergy 6926888.136000                       # Energy for refresh commands per rank (pJ)
system.mem_ctrls.dram.rank1.actBackEnergy 30052486.195200                       # Energy for active background per rank (pJ)
system.mem_ctrls.dram.rank1.preBackEnergy 2780903.193600                       # Energy for precharge background per rank (pJ)
system.mem_ctrls.dram.rank1.actPowerDownEnergy            0                       # Energy for active power-down per rank (pJ)
system.mem_ctrls.dram.rank1.prePowerDownEnergy            0                       # Energy for precharge power-down per rank (pJ)
system.mem_ctrls.dram.rank1.selfRefreshEnergy            0                       # Energy for self refresh per rank (pJ)
system.mem_ctrls.dram.rank1.totalEnergy  40362536.524800                       # Total energy per rank (pJ)
system.mem_ctrls.dram.rank1.averagePower  1018.432997                       # Core power per rank (mW)
system.mem_ctrls.dram.rank1.totalIdleTime            0                       # Total Idle time Per DRAM Rank
system.mem_ctrls.dram.rank1.pwrStateTime::IDLE      4120100                       # Time in different power states
system.mem_ctrls.dram.rank1.pwrStateTime::REF      1750000                       # Time in different power states
system.mem_ctrls.dram.rank1.pwrStateTime::SREF            0                       # Time in different power states
system.mem_ctrls.dram.rank1.pwrStateTime::PRE_PDN            0                       # Time in different power states
system.mem_ctrls.dram.rank1.pwrStateTime::ACT     33761900                       # Time in different power states
system.mem_ctrls.dram.rank1.pwrStateTime::ACT_PDN            0                       # Time in different power states
system.mem_ctrls.power_state.pwrStateResidencyTicks::UNDEFINED     39632000                       # Cumulative time (in ticks) in various power states
system.membus.trans_dist::ReadResp                549                       # Transaction distribution
system.membus.trans_dist::WritebackDirty            1                       # Transaction distribution
system.membus.trans_dist::WritebackClean          108                       # Transaction distribution
system.membus.trans_dist::CleanEvict                2                       # Transaction distribution
system.membus.trans_dist::ReadExReq                67                       # Transaction distribution
system.membus.trans_dist::ReadExResp               67                       # Transaction distribution
system.membus.trans_dist::ReadCleanReq            435                       # Transaction distribution
system.membus.trans_dist::ReadSharedReq           114                       # Transaction distribution
system.membus.pkt_count_system.cpu.icache.mem_side_port::system.mem_ctrls.port          978                       # Packet count per connected requestor and responder (bytes)
system.membus.pkt_count_system.cpu.dcache.mem_side_port::system.mem_ctrls.port          365                       # Packet count per connected requestor and responder (bytes)
system.membus.pkt_count::total                   1343                       # Packet count per connected requestor and responder (bytes)
system.membus.pkt_size_system.cpu.icache.mem_side_port::system.mem_ctrls.port        34752                       # Cumulative packet size per connected requestor and responder (bytes)
system.membus.pkt_size_system.cpu.dcache.mem_side_port::system.mem_ctrls.port        11648                       # Cumulative packet size per connected requestor and responder (bytes)
system.membus.pkt_size::total                   46400                       # Cumulative packet size per connected requestor and responder (bytes)
system.membus.snoops                                0                       # Total snoops (count)
system.membus.snoopTraffic                          0                       # Total snoop traffic (bytes)
system.membus.snoop_fanout::samples               616                       # Request fanout histogram
system.membus.snoop_fanout::mean             0.042208                       # Request fanout histogram
system.membus.snoop_fanout::stdev            0.201226                       # Request fanout histogram
system.membus.snoop_fanout::underflows              0      0.00%      0.00% # Request fanout histogram
system.membus.snoop_fanout::0                     590     95.78%     95.78% # Request fanout histogram
system.membus.snoop_fanout::1                      26      4.22%    100.00% # Request fanout histogram
system.membus.snoop_fanout::2                       0      0.00%    100.00% # Request fanout histogram
system.membus.snoop_fanout::overflows               0      0.00%    100.00% # Request fanout histogram
system.membus.snoop_fanout::min_value               0                       # Request fanout histogram
system.membus.snoop_fanout::max_value               1                       # Request fanout histogram
system.membus.snoop_fanout::total                 616                       # Request fanout histogram
system.membus.power_state.pwrStateResidencyTicks::UNDEFINED     39632000                       # Cumulative time (in ticks) in various power states
system.membus.reqLayer0.occupancy             1742750                       # Layer occupancy (ticks)
system.membus.reqLayer0.utilization               4.4                       # Layer utilization (%)
system.membus.respLayer1.occupancy            2783884                       # Layer occupancy (ticks)
system.membus.respLayer1.utilization              7.0                       # Layer utilization (%)
system.membus.respLayer2.occupancy            1180268                       # Layer occupancy (ticks)
system.membus.respLayer2.utilization              3.0                       # Layer utilization (%)
system.voltage_domain.voltage                       1                       # Voltage in Volts

---------- End Simulation Statistics   ----------
